*
*|DSPF 1.3
*|DESIGN ARRAY_CMP_T1
*|DATE "Fri Dec  4 23:08:57 2020"
*|VENDOR "Synopsys"
*|PROGRAM "StarRC"
*|VERSION "K-2015.06-SP1"
*|DIVIDER /
*|DELIMITER :
**FORMAT SPF
*

** COMMENTS

** OPERATING_TEMPERATURE 25
** GLOBAL_TEMPERATURE 25
** TCAD_GRD_FILE /raidj/user/t28/t28u25/etron/ADC_SAR4BIT/runLPE/cln28hpc+_1p09m+ut-alrdl_6x2z_typical.nxtgrd
**   TCAD_TIME_STAMP Thu Jun 25 12:48:01 2015
**   TCADGRD_VERSION 80
** HALF_NODE_SCALE_FACTOR 0.9


.SUBCKT ARRAY_CMP_T1 TOP_ARRAY SL3B SL2B SL1B SL3A SL2A SL1A

*|GROUND_NET 0

*|NET SL3B 0.00443977PF
*|P (SL3B O 0 1.00489 -1.19489)
*|I (XI14/xC0:T2 XI14/xC0 T2 B 0 1.04489 1.30489)
*|I (XI10/xC0:T2 XI10/xC0 T2 B 0 1.25489 1.30489)
*|I (XI5/xC0:T2 XI5/xC0 T2 B 0 2.09489 1.30489)
*|I (XI1/xC0:T2 XI1/xC0 T2 B 0 2.30489 1.30489)
Cg3_1 XI14/xC0:T2 0 9.0511e-17
Cg3_2 XI10/xC0:T2 0 9.35903e-18
Cg3_3 XI5/xC0:T2 0 1.69787e-17
Cg3_4 XI1/xC0:T2 0 1.04815e-17
Cg3_5 SL3B:1 0 2.11651e-16
Cg3_6 SL3B:2 0 7.50754e-17
Cg3_7 SL3B:3 0 1.65285e-16
R3_1 SL3B SL3B:3 0.211128
R3_2 XI14/xC0:T2 SL3B:3 46.3124
R3_3 XI10/xC0:T2 SL3B:2 46.5225
R3_4 XI5/xC0:T2 SL3B:1 46.5215
R3_5 XI1/xC0:T2 SL3B:1 47.3187
R3_6 SL3B:1 SL3B:2 3.37805
R3_7 SL3B:2 SL3B:3 0.844512

*|NET SL3A 0.00441399PF
*|P (SL3A O 0 2.47489 -0.694889)
*|I (XI13/xC0:T2 XI13/xC0 T2 B 0 2.51489 1.30489)
*|I (XI11/xC0:T2 XI11/xC0 T2 B 0 2.72489 1.30489)
*|I (XI4/xC0:T2 XI4/xC0 T2 B 0 3.56489 1.30489)
*|I (XI2/xC0:T2 XI2/xC0 T2 B 0 3.77489 1.30489)
C6_8 XI13/xC0:T2 XI1/xC0:T2 3.0701e-17
C6_9 XI13/xC0:T2 XI5/xC0:T2 5.99539e-18
C6_10 XI13/xC0:T2 SL3B:1 1.79451e-17
Cg6_11 XI13/xC0:T2 0 3.04201e-17
C6_12 XI11/xC0:T2 XI1/xC0:T2 1.11399e-18
Cg6_13 XI11/xC0:T2 0 6.18926e-18
Cg6_14 XI4/xC0:T2 0 7.09165e-18
Cg6_15 XI2/xC0:T2 0 9.11844e-17
C6_16 SL3A:1 XI1/xC0:T2 3.05326e-18
C6_17 SL3A:1 XI5/xC0:T2 2.6663e-19
Cg6_18 SL3A:1 0 3.38404e-16
C6_19 SL3A:2 XI1/xC0:T2 4.8814e-18
Cg6_20 SL3A:2 0 6.50862e-17
C6_21 SL3A:3 XI1/xC0:T2 5.31347e-17
C6_22 SL3A:3 SL3B:1 8.64883e-17
Cg6_23 SL3A:3 0 3.40279e-17
R6_8 SL3A SL3A:3 0.2104
R6_9 XI13/xC0:T2 SL3A:3 44.6912
R6_10 XI11/xC0:T2 SL3A:2 44.6912
R6_11 XI4/xC0:T2 SL3A:1 44.6912
R6_12 XI2/xC0:T2 SL3A:1 45.4771
R6_13 SL3A:1 SL3A:2 3.36639
R6_14 SL3A:2 SL3A:3 0.841598

*|NET SL2B 0.00261592PF
*|P (SL2B O 0 1.42489 -0.944889)
*|I (XI12/xC0:T2 XI12/xC0 T2 B 0 1.46489 1.30489)
*|I (XI6/xC0:T2 XI6/xC0 T2 B 0 1.88489 1.30489)
C4_24 XI12/xC0:T2 SL3B:2 4.44412e-18
C4_25 XI12/xC0:T2 XI5/xC0:T2 3.00116e-19
C4_26 XI12/xC0:T2 SL3B:1 2.77583e-18
C4_27 XI12/xC0:T2 XI10/xC0:T2 4.74644e-17
C4_28 XI12/xC0:T2 XI14/xC0:T2 1.87763e-18
Cg4_29 XI12/xC0:T2 0 2.10356e-17
C4_30 XI6/xC0:T2 XI1/xC0:T2 1.11399e-18
C4_31 XI6/xC0:T2 XI5/xC0:T2 2.95193e-17
Cg4_32 XI6/xC0:T2 0 3.8007e-18
C4_33 SL2B:1 SL3B:2 1.03948e-16
C4_34 SL2B:1 XI1/xC0:T2 6.55256e-18
C4_35 SL2B:1 XI5/xC0:T2 5.09916e-17
C4_36 SL2B:1 SL3B:1 1.52218e-16
C4_37 SL2B:1 XI10/xC0:T2 4.69783e-17
C4_38 SL2B:1 XI14/xC0:T2 6.02927e-18
Cg4_39 SL2B:1 0 1.34327e-16
R4_15 SL2B SL2B:1 0.213856
R4_16 XI12/xC0:T2 SL2B:1 45.59
R4_17 XI6/xC0:T2 SL2B:1 47.3016

*|NET SL2A 0.0026253PF
*|P (SL2A O 0 2.89489 -0.944889)
*|I (XI9/xC0:T2 XI9/xC0 T2 B 0 2.93489 1.30489)
*|I (XI3/xC0:T2 XI3/xC0 T2 B 0 3.35489 1.30489)
C7_40 XI9/xC0:T2 XI11/xC0:T2 3.0701e-17
C7_41 XI9/xC0:T2 XI13/xC0:T2 5.99492e-18
C7_42 XI9/xC0:T2 SL3A:2 1.79451e-17
Cg7_43 XI9/xC0:T2 0 4.00328e-18
C7_44 XI3/xC0:T2 SL3A:1 1.16181e-16
C7_45 XI3/xC0:T2 XI2/xC0:T2 5.99492e-18
C7_46 XI3/xC0:T2 XI4/xC0:T2 8.38518e-17
Cg7_47 XI3/xC0:T2 0 8.49766e-18
C7_48 SL2A:1 SL3A:1 3.57873e-17
C7_49 SL2A:1 XI11/xC0:T2 5.31505e-17
C7_50 SL2A:1 SL3A:2 8.5764e-17
Cg7_51 SL2A:1 0 1.54672e-16
R7_18 SL2A SL2A:1 0.213945
R7_19 XI9/xC0:T2 SL2A:1 45.5895
R7_20 XI3/xC0:T2 SL2A:1 47.2996

*|NET SL1B 0.00130676PF
*|P (SL1B O 0 1.59989 -0.694889)
*|I (XI8/xC0:T2 XI8/xC0 T2 B 0 1.67489 1.30489)
C5_52 SL1B XI12/xC0:T2 1.03456e-16
C5_53 SL1B XI6/xC0:T2 3.80145e-17
C5_54 SL1B SL2B:1 1.99633e-16
Cg5_55 SL1B 0 8.5536e-17
C5_56 XI8/xC0:T2 SL2B:1 4.44412e-18
C5_57 XI8/xC0:T2 XI6/xC0:T2 2.62569e-17
C5_58 XI8/xC0:T2 XI12/xC0:T2 2.95193e-17
Cg5_59 XI8/xC0:T2 0 1.92451e-17
R5_21 SL1B XI8/xC0:T2 45.0404

*|NET SL1A 0.00134388PF
*|P (SL1A O 0 3.02989 -1.19489)
*|I (XI7/xC0:T2 XI7/xC0 T2 B 0 3.14489 1.30489)
C8_60 SL1A XI9/xC0:T2 1.04599e-16
C8_61 SL1A SL2A:1 1.2077e-16
Cg8_62 SL1A 0 8.87917e-17
C8_63 XI7/xC0:T2 XI3/xC0:T2 1.3081e-16
C8_64 XI7/xC0:T2 XI9/xC0:T2 4.86462e-17
C8_65 XI7/xC0:T2 SL2A:1 1.66139e-17
Cg8_66 XI7/xC0:T2 0 3.29942e-17
R8_22 SL1A XI7/xC0:T2 47.0374

*|NET TOP_ARRAY 0.0167552PF
*|P (TOP_ARRAY O 0 0.479889 2.55989)
*|I (XI37/xC0:T1 XI37/xC0 T1 B 0 0.537444 1.62989)
*|I (XI35/xC0:T1 XI35/xC0 T1 B 0 0.747444 1.62989)
*|I (XI14/xC0:T1 XI14/xC0 T1 B 0 0.957444 1.62989)
*|I (XI10/xC0:T1 XI10/xC0 T1 B 0 1.16744 1.62989)
*|I (XI12/xC0:T1 XI12/xC0 T1 B 0 1.37744 1.62989)
*|I (XI8/xC0:T1 XI8/xC0 T1 B 0 1.58744 1.62989)
*|I (XI6/xC0:T1 XI6/xC0 T1 B 0 1.79744 1.62989)
*|I (XI5/xC0:T1 XI5/xC0 T1 B 0 2.00744 1.62989)
*|I (XI1/xC0:T1 XI1/xC0 T1 B 0 2.21744 1.62989)
*|I (XI13/xC0:T1 XI13/xC0 T1 B 0 2.42744 1.62989)
*|I (XI11/xC0:T1 XI11/xC0 T1 B 0 2.63744 1.62989)
*|I (XI9/xC0:T1 XI9/xC0 T1 B 0 2.84744 1.62989)
*|I (XI7/xC0:T1 XI7/xC0 T1 B 0 3.05744 1.62989)
*|I (XI3/xC0:T1 XI3/xC0 T1 B 0 3.26744 1.62989)
*|I (XI4/xC0:T1 XI4/xC0 T1 B 0 3.47744 1.62989)
*|I (XI2/xC0:T1 XI2/xC0 T1 B 0 3.68744 1.62989)
*|I (XI34/xC0:T1 XI34/xC0 T1 B 0 3.89744 1.62989)
*|I (XI0/xC0:T1 XI0/xC0 T1 B 0 4.10744 1.62989)
*|I (XI36/xC0:T1 XI36/xC0 T1 B 0 4.31744 1.62989)
Cg1_67 TOP_ARRAY 0 4.45381e-17
Cg1_68 XI37/xC0:T1 0 1.8821e-17
C1_69 TOP_ARRAY:37 XI2/xC0:T2 4.14481e-18
C1_70 TOP_ARRAY:37 XI4/xC0:T2 4.14481e-18
C1_71 TOP_ARRAY:37 XI3/xC0:T2 4.14481e-18
C1_72 TOP_ARRAY:37 XI7/xC0:T2 4.14481e-18
C1_73 TOP_ARRAY:37 XI9/xC0:T2 4.14481e-18
C1_74 TOP_ARRAY:37 XI11/xC0:T2 4.14481e-18
C1_75 TOP_ARRAY:37 XI13/xC0:T2 4.14481e-18
C1_76 TOP_ARRAY:37 XI1/xC0:T2 4.14481e-18
C1_77 TOP_ARRAY:37 XI5/xC0:T2 4.14481e-18
C1_78 TOP_ARRAY:37 XI6/xC0:T2 4.14481e-18
C1_79 TOP_ARRAY:37 XI8/xC0:T2 4.14481e-18
C1_80 TOP_ARRAY:37 XI12/xC0:T2 4.14481e-18
C1_81 TOP_ARRAY:37 XI10/xC0:T2 4.14481e-18
C1_82 TOP_ARRAY:37 XI14/xC0:T2 4.14481e-18
Cg1_83 TOP_ARRAY:37 0 3.68246e-16
Cg1_84 TOP_ARRAY:38 0 5.43109e-16
Cg1_85 TOP_ARRAY:39 0 2.66441e-16
C1_86 TOP_ARRAY:40 XI2/xC0:T2 1.31656e-16
Cg1_87 TOP_ARRAY:40 0 1.34787e-16
C1_88 TOP_ARRAY:41 XI4/xC0:T2 1.31656e-16
C1_89 TOP_ARRAY:41 XI2/xC0:T2 1.31656e-16
Cg1_90 TOP_ARRAY:41 0 3.13366e-18
C1_91 TOP_ARRAY:42 XI3/xC0:T2 1.31656e-16
C1_92 TOP_ARRAY:42 XI4/xC0:T2 1.31656e-16
Cg1_93 TOP_ARRAY:42 0 3.13366e-18
C1_94 TOP_ARRAY:43 XI7/xC0:T2 1.31656e-16
C1_95 TOP_ARRAY:43 XI3/xC0:T2 1.31656e-16
Cg1_96 TOP_ARRAY:43 0 3.13366e-18
C1_97 TOP_ARRAY:44 XI9/xC0:T2 1.31656e-16
C1_98 TOP_ARRAY:44 XI7/xC0:T2 1.31656e-16
Cg1_99 TOP_ARRAY:44 0 3.13366e-18
C1_100 TOP_ARRAY:45 XI11/xC0:T2 1.31656e-16
C1_101 TOP_ARRAY:45 XI9/xC0:T2 1.31656e-16
Cg1_102 TOP_ARRAY:45 0 3.13366e-18
C1_103 TOP_ARRAY:46 XI13/xC0:T2 1.31656e-16
C1_104 TOP_ARRAY:46 XI11/xC0:T2 1.31656e-16
Cg1_105 TOP_ARRAY:46 0 3.13366e-18
C1_106 TOP_ARRAY:47 XI1/xC0:T2 1.31656e-16
C1_107 TOP_ARRAY:47 XI13/xC0:T2 1.31656e-16
Cg1_108 TOP_ARRAY:47 0 3.13366e-18
C1_109 TOP_ARRAY:48 XI5/xC0:T2 1.31656e-16
C1_110 TOP_ARRAY:48 XI1/xC0:T2 1.31656e-16
Cg1_111 TOP_ARRAY:48 0 3.13366e-18
C1_112 TOP_ARRAY:49 XI6/xC0:T2 1.31656e-16
C1_113 TOP_ARRAY:49 XI5/xC0:T2 1.31656e-16
Cg1_114 TOP_ARRAY:49 0 3.13366e-18
C1_115 TOP_ARRAY:50 XI8/xC0:T2 1.31656e-16
C1_116 TOP_ARRAY:50 XI6/xC0:T2 1.31656e-16
Cg1_117 TOP_ARRAY:50 0 3.13366e-18
C1_118 TOP_ARRAY:51 XI12/xC0:T2 1.31656e-16
C1_119 TOP_ARRAY:51 XI8/xC0:T2 1.31656e-16
Cg1_120 TOP_ARRAY:51 0 3.13366e-18
C1_121 TOP_ARRAY:52 XI10/xC0:T2 1.31656e-16
C1_122 TOP_ARRAY:52 XI12/xC0:T2 1.31656e-16
Cg1_123 TOP_ARRAY:52 0 3.13366e-18
C1_124 TOP_ARRAY:53 XI14/xC0:T2 1.31656e-16
C1_125 TOP_ARRAY:53 XI10/xC0:T2 1.31656e-16
Cg1_126 TOP_ARRAY:53 0 3.13366e-18
C1_127 TOP_ARRAY:54 XI14/xC0:T2 1.31656e-16
Cg1_128 TOP_ARRAY:54 0 1.34787e-16
Cg1_129 TOP_ARRAY:55 0 2.66643e-16
Cg1_130 TOP_ARRAY:56 0 6.09405e-16
Cg1_131 TOP_ARRAY:57 0 2.70496e-16
C1_132 TOP_ARRAY:58 XI2/xC0:T2 1.3385e-16
Cg1_133 TOP_ARRAY:58 0 1.36648e-16
C1_134 TOP_ARRAY:59 XI4/xC0:T2 1.3385e-16
C1_135 TOP_ARRAY:59 XI2/xC0:T2 1.3385e-16
Cg1_136 TOP_ARRAY:59 0 2.80048e-18
C1_137 TOP_ARRAY:60 XI3/xC0:T2 1.3385e-16
C1_138 TOP_ARRAY:60 XI4/xC0:T2 1.3385e-16
Cg1_139 TOP_ARRAY:60 0 2.80048e-18
C1_140 TOP_ARRAY:61 XI7/xC0:T2 1.3385e-16
C1_141 TOP_ARRAY:61 XI3/xC0:T2 1.3385e-16
Cg1_142 TOP_ARRAY:61 0 2.80048e-18
C1_143 TOP_ARRAY:62 XI9/xC0:T2 1.3385e-16
C1_144 TOP_ARRAY:62 XI7/xC0:T2 1.3385e-16
Cg1_145 TOP_ARRAY:62 0 2.80048e-18
C1_146 TOP_ARRAY:63 XI11/xC0:T2 1.3385e-16
C1_147 TOP_ARRAY:63 XI9/xC0:T2 1.3385e-16
Cg1_148 TOP_ARRAY:63 0 2.80048e-18
C1_149 TOP_ARRAY:64 XI13/xC0:T2 1.3385e-16
C1_150 TOP_ARRAY:64 XI11/xC0:T2 1.3385e-16
Cg1_151 TOP_ARRAY:64 0 2.80048e-18
C1_152 TOP_ARRAY:65 XI1/xC0:T2 1.3385e-16
C1_153 TOP_ARRAY:65 XI13/xC0:T2 1.3385e-16
Cg1_154 TOP_ARRAY:65 0 2.80048e-18
C1_155 TOP_ARRAY:66 XI5/xC0:T2 1.3385e-16
C1_156 TOP_ARRAY:66 XI1/xC0:T2 1.3385e-16
Cg1_157 TOP_ARRAY:66 0 2.80048e-18
C1_158 TOP_ARRAY:67 XI6/xC0:T2 1.3385e-16
C1_159 TOP_ARRAY:67 XI5/xC0:T2 1.3385e-16
Cg1_160 TOP_ARRAY:67 0 2.80048e-18
C1_161 TOP_ARRAY:68 XI8/xC0:T2 1.3385e-16
C1_162 TOP_ARRAY:68 XI6/xC0:T2 1.3385e-16
Cg1_163 TOP_ARRAY:68 0 2.80048e-18
C1_164 TOP_ARRAY:69 XI12/xC0:T2 1.3385e-16
C1_165 TOP_ARRAY:69 XI8/xC0:T2 1.3385e-16
Cg1_166 TOP_ARRAY:69 0 2.80048e-18
C1_167 TOP_ARRAY:70 XI10/xC0:T2 1.3385e-16
C1_168 TOP_ARRAY:70 XI12/xC0:T2 1.3385e-16
Cg1_169 TOP_ARRAY:70 0 2.80048e-18
C1_170 TOP_ARRAY:71 XI14/xC0:T2 1.3385e-16
C1_171 TOP_ARRAY:71 XI10/xC0:T2 1.3385e-16
Cg1_172 TOP_ARRAY:71 0 2.80048e-18
C1_173 TOP_ARRAY:72 XI14/xC0:T2 1.3385e-16
Cg1_174 TOP_ARRAY:72 0 1.36649e-16
C1_175 TOP_ARRAY:73 XI2/xC0:T2 3.38462e-18
C1_176 TOP_ARRAY:73 XI4/xC0:T2 3.38462e-18
C1_177 TOP_ARRAY:73 XI3/xC0:T2 3.38462e-18
C1_178 TOP_ARRAY:73 XI7/xC0:T2 3.38462e-18
C1_179 TOP_ARRAY:73 XI9/xC0:T2 3.38462e-18
C1_180 TOP_ARRAY:73 XI11/xC0:T2 3.38462e-18
C1_181 TOP_ARRAY:73 XI13/xC0:T2 3.38462e-18
C1_182 TOP_ARRAY:73 XI1/xC0:T2 3.38462e-18
C1_183 TOP_ARRAY:73 XI5/xC0:T2 3.38462e-18
C1_184 TOP_ARRAY:73 XI6/xC0:T2 3.38462e-18
C1_185 TOP_ARRAY:73 XI8/xC0:T2 3.38462e-18
C1_186 TOP_ARRAY:73 XI12/xC0:T2 3.38462e-18
C1_187 TOP_ARRAY:73 XI10/xC0:T2 3.38462e-18
C1_188 TOP_ARRAY:73 XI14/xC0:T2 3.38462e-18
Cg1_189 TOP_ARRAY:73 0 6.03056e-16
Cg1_190 TOP_ARRAY:74 0 7.66302e-16
C1_191 TOP_ARRAY:75 SL3A:1 1.29091e-16
Cg1_192 TOP_ARRAY:75 0 1.44376e-16
C1_193 TOP_ARRAY:76 XI2/xC0:T2 1.29091e-16
C1_194 TOP_ARRAY:76 SL3A:1 1.29091e-16
Cg1_195 TOP_ARRAY:76 0 1.5285e-17
C1_196 TOP_ARRAY:77 SL2A:1 1.16893e-16
C1_197 TOP_ARRAY:77 XI3/xC0:T2 1.21981e-17
C1_198 TOP_ARRAY:77 XI4/xC0:T2 1.29091e-16
Cg1_199 TOP_ARRAY:77 0 1.5285e-17
C1_200 TOP_ARRAY:78 SL2A:1 1.29091e-16
C1_201 TOP_ARRAY:78 SL1A 1.29091e-16
Cg1_202 TOP_ARRAY:78 0 1.5285e-17
C1_203 TOP_ARRAY:79 SL2A:1 1.29091e-16
C1_204 TOP_ARRAY:79 XI7/xC0:T2 1.29091e-16
Cg1_205 TOP_ARRAY:79 0 1.5285e-17
C1_206 TOP_ARRAY:80 SL3A:2 1.29091e-16
C1_207 TOP_ARRAY:80 XI9/xC0:T2 1.29091e-16
Cg1_208 TOP_ARRAY:80 0 1.5285e-17
C1_209 TOP_ARRAY:81 SL3A:3 1.29091e-16
C1_210 TOP_ARRAY:81 XI11/xC0:T2 1.29091e-16
Cg1_211 TOP_ARRAY:81 0 1.5285e-17
C1_212 TOP_ARRAY:82 SL3B:1 1.29091e-16
C1_213 TOP_ARRAY:82 XI13/xC0:T2 1.29091e-16
Cg1_214 TOP_ARRAY:82 0 1.5285e-17
C1_215 TOP_ARRAY:83 SL3B:1 1.29091e-16
C1_216 TOP_ARRAY:83 XI1/xC0:T2 1.29091e-16
Cg1_217 TOP_ARRAY:83 0 1.5285e-17
C1_218 TOP_ARRAY:84 XI6/xC0:T2 1.29091e-16
C1_219 TOP_ARRAY:84 XI5/xC0:T2 1.29091e-16
Cg1_220 TOP_ARRAY:84 0 1.5285e-17
C1_221 TOP_ARRAY:85 XI8/xC0:T2 1.29091e-16
C1_222 TOP_ARRAY:85 XI6/xC0:T2 1.29091e-16
Cg1_223 TOP_ARRAY:85 0 1.5285e-17
C1_224 TOP_ARRAY:86 XI8/xC0:T2 1.29091e-16
C1_225 TOP_ARRAY:86 SL2B:1 1.29091e-16
Cg1_226 TOP_ARRAY:86 0 1.5285e-17
C1_227 TOP_ARRAY:87 XI12/xC0:T2 1.29091e-16
C1_228 TOP_ARRAY:87 SL3B:2 1.29091e-16
Cg1_229 TOP_ARRAY:87 0 1.5285e-17
C1_230 TOP_ARRAY:88 XI10/xC0:T2 1.29091e-16
C1_231 TOP_ARRAY:88 SL3B:3 1.29091e-16
Cg1_232 TOP_ARRAY:88 0 1.5285e-17
C1_233 TOP_ARRAY:89 XI14/xC0:T2 1.29091e-16
Cg1_234 TOP_ARRAY:89 0 1.44106e-16
C1_235 TOP_ARRAY:90 XI2/xC0:T2 3.93435e-18
C1_236 TOP_ARRAY:90 XI4/xC0:T2 3.93435e-18
C1_237 TOP_ARRAY:90 XI3/xC0:T2 3.93435e-18
C1_238 TOP_ARRAY:90 XI7/xC0:T2 3.93435e-18
C1_239 TOP_ARRAY:90 XI9/xC0:T2 3.93435e-18
C1_240 TOP_ARRAY:90 XI11/xC0:T2 3.93435e-18
C1_241 TOP_ARRAY:90 XI13/xC0:T2 3.93435e-18
C1_242 TOP_ARRAY:90 XI1/xC0:T2 3.93435e-18
C1_243 TOP_ARRAY:90 XI5/xC0:T2 3.93435e-18
C1_244 TOP_ARRAY:90 XI6/xC0:T2 3.83902e-18
C1_245 TOP_ARRAY:90 XI8/xC0:T2 3.93435e-18
C1_246 TOP_ARRAY:90 XI12/xC0:T2 3.93435e-18
C1_247 TOP_ARRAY:90 XI10/xC0:T2 3.93435e-18
C1_248 TOP_ARRAY:90 XI14/xC0:T2 3.93435e-18
Cg1_249 TOP_ARRAY:90 0 6.81827e-16
R1_23 TOP_ARRAY:1 TOP_ARRAY:2 8
R1_24 TOP_ARRAY:1 TOP_ARRAY:56 0.455805
R1_25 TOP_ARRAY:1 TOP_ARRAY:57 0.142439
R1_26 TOP_ARRAY:2 TOP_ARRAY:38 0.455807
R1_27 TOP_ARRAY:2 TOP_ARRAY:39 0.14244
R1_28 TOP_ARRAY:3 TOP_ARRAY:4 8
R1_29 TOP_ARRAY:3 TOP_ARRAY:57 0.227902
R1_30 TOP_ARRAY:3 TOP_ARRAY:58 0.370341
R1_31 TOP_ARRAY:4 TOP_ARRAY:39 0.227904
R1_32 TOP_ARRAY:4 TOP_ARRAY:40 0.370343
R1_33 TOP_ARRAY:5 TOP_ARRAY:6 8
R1_34 TOP_ARRAY:5 TOP_ARRAY:58 0.370341
R1_35 TOP_ARRAY:5 TOP_ARRAY:59 0.227902
R1_36 TOP_ARRAY:6 TOP_ARRAY:40 0.370343
R1_37 TOP_ARRAY:6 TOP_ARRAY:41 0.227904
R1_38 TOP_ARRAY:7 TOP_ARRAY:8 8
R1_39 TOP_ARRAY:7 TOP_ARRAY:59 0.142439
R1_40 TOP_ARRAY:7 TOP_ARRAY:60 0.455805
R1_41 TOP_ARRAY:8 TOP_ARRAY:41 0.14244
R1_42 TOP_ARRAY:8 TOP_ARRAY:42 0.455807
R1_43 TOP_ARRAY:9 TOP_ARRAY:10 8
R1_44 TOP_ARRAY:9 TOP_ARRAY:60 0.284878
R1_45 TOP_ARRAY:9 TOP_ARRAY:61 0.313366
R1_46 TOP_ARRAY:10 TOP_ARRAY:42 0.28488
R1_47 TOP_ARRAY:10 TOP_ARRAY:43 0.313368
R1_48 TOP_ARRAY:11 TOP_ARRAY:12 8
R1_49 TOP_ARRAY:11 TOP_ARRAY:61 0.427317
R1_50 TOP_ARRAY:11 TOP_ARRAY:62 0.170927
R1_51 TOP_ARRAY:12 TOP_ARRAY:43 0.427319
R1_52 TOP_ARRAY:12 TOP_ARRAY:44 0.170928
R1_53 TOP_ARRAY:13 TOP_ARRAY:14 8
R1_54 TOP_ARRAY:13 TOP_ARRAY:62 0.199415
R1_55 TOP_ARRAY:13 TOP_ARRAY:63 0.398829
R1_56 TOP_ARRAY:14 TOP_ARRAY:44 0.199416
R1_57 TOP_ARRAY:14 TOP_ARRAY:45 0.398831
R1_58 TOP_ARRAY:15 TOP_ARRAY:16 8
R1_59 TOP_ARRAY:15 TOP_ARRAY:63 0.341853
R1_60 TOP_ARRAY:15 TOP_ARRAY:64 0.25639
R1_61 TOP_ARRAY:16 TOP_ARRAY:45 0.341855
R1_62 TOP_ARRAY:16 TOP_ARRAY:46 0.256392
R1_63 TOP_ARRAY:17 TOP_ARRAY:18 8
R1_64 TOP_ARRAY:17 TOP_ARRAY:19 0.370341
R1_65 TOP_ARRAY:17 TOP_ARRAY:64 0.113951
R1_66 TOP_ARRAY:18 TOP_ARRAY:20 0.370343
R1_67 TOP_ARRAY:18 TOP_ARRAY:46 0.113952
R1_68 TOP_ARRAY:19 TOP_ARRAY:20 8
R1_69 TOP_ARRAY:19 TOP_ARRAY:65 0.113951
R1_70 TOP_ARRAY:20 TOP_ARRAY:47 0.113952
R1_71 TOP_ARRAY:21 TOP_ARRAY:22 8
R1_72 TOP_ARRAY:21 TOP_ARRAY:65 0.25639
R1_73 TOP_ARRAY:21 TOP_ARRAY:66 0.341853
R1_74 TOP_ARRAY:22 TOP_ARRAY:47 0.256392
R1_75 TOP_ARRAY:22 TOP_ARRAY:48 0.341855
R1_76 TOP_ARRAY:23 TOP_ARRAY:24 8
R1_77 TOP_ARRAY:23 TOP_ARRAY:66 0.398829
R1_78 TOP_ARRAY:23 TOP_ARRAY:67 0.199415
R1_79 TOP_ARRAY:24 TOP_ARRAY:48 0.398831
R1_80 TOP_ARRAY:24 TOP_ARRAY:49 0.199416
R1_81 TOP_ARRAY:25 TOP_ARRAY:26 8
R1_82 TOP_ARRAY:25 TOP_ARRAY:67 0.170927
R1_83 TOP_ARRAY:25 TOP_ARRAY:68 0.427317
R1_84 TOP_ARRAY:26 TOP_ARRAY:49 0.170928
R1_85 TOP_ARRAY:26 TOP_ARRAY:50 0.427319
R1_86 TOP_ARRAY:27 TOP_ARRAY:28 8
R1_87 TOP_ARRAY:27 TOP_ARRAY:68 0.313366
R1_88 TOP_ARRAY:27 TOP_ARRAY:69 0.284878
R1_89 TOP_ARRAY:28 TOP_ARRAY:50 0.313368
R1_90 TOP_ARRAY:28 TOP_ARRAY:51 0.28488
R1_91 TOP_ARRAY:29 TOP_ARRAY:30 8
R1_92 TOP_ARRAY:29 TOP_ARRAY:69 0.455805
R1_93 TOP_ARRAY:29 TOP_ARRAY:70 0.142439
R1_94 TOP_ARRAY:30 TOP_ARRAY:51 0.455807
R1_95 TOP_ARRAY:30 TOP_ARRAY:52 0.14244
R1_96 TOP_ARRAY:31 TOP_ARRAY:32 8
R1_97 TOP_ARRAY:31 TOP_ARRAY:70 0.227902
R1_98 TOP_ARRAY:31 TOP_ARRAY:71 0.370341
R1_99 TOP_ARRAY:32 TOP_ARRAY:52 0.227904
R1_100 TOP_ARRAY:32 TOP_ARRAY:53 0.370343
R1_101 TOP_ARRAY TOP_ARRAY:90 24.9409
R1_102 TOP_ARRAY:33 TOP_ARRAY:34 8
R1_103 TOP_ARRAY:33 TOP_ARRAY:71 0.370341
R1_104 TOP_ARRAY:33 TOP_ARRAY:72 0.227902
R1_105 TOP_ARRAY:34 TOP_ARRAY:53 0.370343
R1_106 TOP_ARRAY:34 TOP_ARRAY:54 0.227904
R1_107 XI37/xC0:T1 TOP_ARRAY:37 7.18549
R1_108 TOP_ARRAY:35 TOP_ARRAY:36 8
R1_109 TOP_ARRAY:35 TOP_ARRAY:72 0.142439
R1_110 TOP_ARRAY:35 TOP_ARRAY:73 0.455805
R1_111 TOP_ARRAY:36 TOP_ARRAY:54 0.14244
R1_112 TOP_ARRAY:36 TOP_ARRAY:55 0.455807
R1_113 XI35/xC0:T1 TOP_ARRAY:55 6.93539
R1_114 XI14/xC0:T1 TOP_ARRAY:54 6.95377
R1_115 TOP_ARRAY:37 TOP_ARRAY:55 0.28488
R1_116 TOP_ARRAY:37 TOP_ARRAY:73 8.28488
R1_117 XI10/xC0:T1 TOP_ARRAY:53 6.93539
R1_118 XI12/xC0:T1 TOP_ARRAY:52 6.95377
R1_119 XI8/xC0:T1 TOP_ARRAY:51 6.93539
R1_120 XI6/xC0:T1 TOP_ARRAY:50 6.93539
R1_121 XI5/xC0:T1 TOP_ARRAY:49 6.95377
R1_122 XI1/xC0:T1 TOP_ARRAY:48 6.93539
R1_123 XI13/xC0:T1 TOP_ARRAY:47 6.95377
R1_124 XI11/xC0:T1 TOP_ARRAY:46 6.95377
R1_125 XI9/xC0:T1 TOP_ARRAY:45 6.93539
R1_126 XI7/xC0:T1 TOP_ARRAY:44 6.95377
R1_127 XI3/xC0:T1 TOP_ARRAY:43 6.93539
R1_128 XI4/xC0:T1 TOP_ARRAY:42 6.93539
R1_129 XI2/xC0:T1 TOP_ARRAY:41 6.95377
R1_130 XI34/xC0:T1 TOP_ARRAY:40 6.93539
R1_131 XI0/xC0:T1 TOP_ARRAY:39 6.95377
R1_132 XI36/xC0:T1 TOP_ARRAY:38 6.93539
R1_133 TOP_ARRAY:38 TOP_ARRAY:56 4.13754
R1_134 TOP_ARRAY:40 TOP_ARRAY:58 8
R1_135 TOP_ARRAY:42 TOP_ARRAY:60 8
R1_136 TOP_ARRAY:43 TOP_ARRAY:61 8
R1_137 TOP_ARRAY:45 TOP_ARRAY:63 8
R1_138 TOP_ARRAY:48 TOP_ARRAY:66 8
R1_139 TOP_ARRAY:50 TOP_ARRAY:68 8
R1_140 TOP_ARRAY:51 TOP_ARRAY:69 8
R1_141 TOP_ARRAY:53 TOP_ARRAY:71 8
R1_142 TOP_ARRAY:55 TOP_ARRAY:73 8
R1_143 TOP_ARRAY:56 TOP_ARRAY:74 5.09824
R1_144 TOP_ARRAY:57 TOP_ARRAY:74 4.5
R1_145 TOP_ARRAY:58 TOP_ARRAY:75 4.5
R1_146 TOP_ARRAY:59 TOP_ARRAY:76 4.5
R1_147 TOP_ARRAY:60 TOP_ARRAY:77 4.5
R1_148 TOP_ARRAY:61 TOP_ARRAY:78 4.5
R1_149 TOP_ARRAY:62 TOP_ARRAY:79 4.5
R1_150 TOP_ARRAY:63 TOP_ARRAY:80 4.5
R1_151 TOP_ARRAY:64 TOP_ARRAY:81 4.5
R1_152 TOP_ARRAY:65 TOP_ARRAY:82 4.5
R1_153 TOP_ARRAY:66 TOP_ARRAY:83 4.5
R1_154 TOP_ARRAY:67 TOP_ARRAY:84 4.5
R1_155 TOP_ARRAY:68 TOP_ARRAY:85 4.5
R1_156 TOP_ARRAY:69 TOP_ARRAY:86 4.5
R1_157 TOP_ARRAY:70 TOP_ARRAY:87 4.5
R1_158 TOP_ARRAY:71 TOP_ARRAY:88 4.5
R1_159 TOP_ARRAY:72 TOP_ARRAY:89 4.5
R1_160 TOP_ARRAY:73 TOP_ARRAY:90 4.5
R1_161 TOP_ARRAY:74 TOP_ARRAY:75 0.598244
R1_162 TOP_ARRAY:75 TOP_ARRAY:76 0.598244
R1_163 TOP_ARRAY:76 TOP_ARRAY:77 0.598244
R1_164 TOP_ARRAY:77 TOP_ARRAY:78 0.598244
R1_165 TOP_ARRAY:78 TOP_ARRAY:79 0.598244
R1_166 TOP_ARRAY:79 TOP_ARRAY:80 0.598244
R1_167 TOP_ARRAY:80 TOP_ARRAY:81 0.598244
R1_168 TOP_ARRAY:81 TOP_ARRAY:82 0.598244
R1_169 TOP_ARRAY:82 TOP_ARRAY:83 0.598244
R1_170 TOP_ARRAY:83 TOP_ARRAY:84 0.598244
R1_171 TOP_ARRAY:84 TOP_ARRAY:85 0.598244
R1_172 TOP_ARRAY:85 TOP_ARRAY:86 0.598244
R1_173 TOP_ARRAY:86 TOP_ARRAY:87 0.598244
R1_174 TOP_ARRAY:87 TOP_ARRAY:88 0.598244
R1_175 TOP_ARRAY:88 TOP_ARRAY:89 0.598244
R1_176 TOP_ARRAY:89 TOP_ARRAY:90 0.598244

*
* Instance Section
*
XXI0/xC0 XI0/xC0:T1 VSS09A cfmom_2t lr=2.29417e-06 nr=3 s=5e-08 spm=6 stm=4 w=1.2e-06
XXI1/xC0 XI1/xC0:T1 XI1/xC0:T2 cfmom_2t lr=2.29417e-06 nr=3 s=5e-08 spm=6 stm=4 w=1.2e-06
XXI2/xC0 XI2/xC0:T1 XI2/xC0:T2 cfmom_2t lr=2.29417e-06 nr=3 s=5e-08 spm=6 stm=4 w=1.2e-06
XXI3/xC0 XI3/xC0:T1 XI3/xC0:T2 cfmom_2t lr=2.29417e-06 nr=3 s=5e-08 spm=6 stm=4 w=1.2e-06
XXI4/xC0 XI4/xC0:T1 XI4/xC0:T2 cfmom_2t lr=2.29417e-06 nr=3 s=5e-08 spm=6 stm=4 w=1.2e-06
XXI5/xC0 XI5/xC0:T1 XI5/xC0:T2 cfmom_2t lr=2.29417e-06 nr=3 s=5e-08 spm=6 stm=4 w=1.2e-06
XXI6/xC0 XI6/xC0:T1 XI6/xC0:T2 cfmom_2t lr=2.29417e-06 nr=3 s=5e-08 spm=6 stm=4 w=1.2e-06
XXI7/xC0 XI7/xC0:T1 XI7/xC0:T2 cfmom_2t lr=2.29417e-06 nr=3 s=5e-08 spm=6 stm=4 w=1.2e-06
XXI8/xC0 XI8/xC0:T1 XI8/xC0:T2 cfmom_2t lr=2.29417e-06 nr=3 s=5e-08 spm=6 stm=4 w=1.2e-06
XXI9/xC0 XI9/xC0:T1 XI9/xC0:T2 cfmom_2t lr=2.29417e-06 nr=3 s=5e-08 spm=6 stm=4 w=1.2e-06
XXI10/xC0 XI10/xC0:T1 XI10/xC0:T2 cfmom_2t lr=2.29417e-06 nr=3 s=5e-08 spm=6 stm=4 w=1.2e-06
XXI11/xC0 XI11/xC0:T1 XI11/xC0:T2 cfmom_2t lr=2.29417e-06 nr=3 s=5e-08 spm=6 stm=4 w=1.2e-06
XXI12/xC0 XI12/xC0:T1 XI12/xC0:T2 cfmom_2t lr=2.29417e-06 nr=3 s=5e-08 spm=6 stm=4 w=1.2e-06
XXI13/xC0 XI13/xC0:T1 XI13/xC0:T2 cfmom_2t lr=2.29417e-06 nr=3 s=5e-08 spm=6 stm=4 w=1.2e-06
XXI14/xC0 XI14/xC0:T1 XI14/xC0:T2 cfmom_2t lr=2.29417e-06 nr=3 s=5e-08 spm=6 stm=4 w=1.2e-06
XXI34/xC0 XI34/xC0:T1 VSS09A cfmom_2t lr=2.29417e-06 nr=3 s=5e-08 spm=6 stm=4 w=1.2e-06
XXI35/xC0 XI35/xC0:T1 VSS09A cfmom_2t lr=2.29417e-06 nr=3 s=5e-08 spm=6 stm=4 w=1.2e-06
XXI36/xC0 XI36/xC0:T1 VSS09A cfmom_2t lr=2.29417e-06 nr=3 s=5e-08 spm=6 stm=4 w=1.2e-06
XXI37/xC0 XI37/xC0:T1 VSS09A cfmom_2t lr=2.29417e-06 nr=3 s=5e-08 spm=6 stm=4 w=1.2e-06

.ENDS

