*
*|DSPF 1.3
*|DESIGN ARRAY_CMP_T1
*|DATE "Sat May 29 16:51:30 2021"
*|VENDOR "Synopsys"
*|PROGRAM "StarRC"
*|VERSION "K-2015.06-SP1"
*|DIVIDER /
*|DELIMITER :
**FORMAT CONLY
*

** COMMENTS

** OPERATING_TEMPERATURE 25
** GLOBAL_TEMPERATURE 25
** TCAD_GRD_FILE /raidj/user/t28/t28u25/etron/ADC_SAR4BIT/runLPE/cln28hpc+_1p09m+ut-alrdl_6x2z_typical.nxtgrd
**   TCAD_TIME_STAMP Thu Jun 25 12:48:01 2015
**   TCADGRD_VERSION 80
** HALF_NODE_SCALE_FACTOR 0.9


.SUBCKT ARRAY_CMP_T1 SL1A SL1B SL2A SL2B SL3A SL3B TOP_ARRAY VDD09A VSS09A

*|GROUND_NET 0

*|NET SL3A 0.00509516PF
Cg1_1 SL3A 0 7.85635e-16

*|NET SL3B 0.00508984PF
C2_2 SL3B SL3A 1.00254e-15
Cg2_3 SL3B 0 3.81115e-16

*|NET TOP_ARRAY 0.0163588PF
C3_4 TOP_ARRAY SL3B 3.20525e-15
C3_5 TOP_ARRAY SL3A 3.20569e-15
Cg3_6 TOP_ARRAY 0 5.14107e-15

*|NET SL2A 0.00265014PF
C6_7 SL2A TOP_ARRAY 1.60185e-15
C6_8 SL2A SL3B 3.7059e-16
C6_9 SL2A SL3A 1.01298e-16
Cg6_10 SL2A 0 1.51243e-16

*|NET SL1A 0.0013667PF
C7_11 SL1A SL2A 1.16865e-16
C7_12 SL1A TOP_ARRAY 8.0135e-16
Cg7_13 SL1A 0 1.30908e-16

*|NET SL1B 0.00141107PF
C8_14 SL1B SL1A 1.61363e-16
C8_15 SL1B TOP_ARRAY 8.00804e-16
Cg8_16 SL1B 0 2.16984e-16

*|NET SL2B 0.00256869PF
C9_17 SL2B SL1B 2.31916e-16
C9_18 SL2B SL1A 1.56217e-16
C9_19 SL2B SL2A 3.08294e-16
C9_20 SL2B TOP_ARRAY 1.60278e-15
C9_21 SL2B SL3B 1.30349e-16
Cg9_22 SL2B 0 1.39134e-16

*
* Instance Section
*
XXI0/xC0 TOP_ARRAY VSS09A cfmom_2t lr=2.29417e-06 nr=3 s=5e-08 spm=6 stm=4 w=1.2e-06
XXI1/xC0 TOP_ARRAY SL3B cfmom_2t lr=2.29417e-06 nr=3 s=5e-08 spm=6 stm=4 w=1.2e-06
XXI2/xC0 TOP_ARRAY SL3A cfmom_2t lr=2.29417e-06 nr=3 s=5e-08 spm=6 stm=4 w=1.2e-06
XXI3/xC0 TOP_ARRAY SL2A cfmom_2t lr=2.29417e-06 nr=3 s=5e-08 spm=6 stm=4 w=1.2e-06
XXI4/xC0 TOP_ARRAY SL3A cfmom_2t lr=2.29417e-06 nr=3 s=5e-08 spm=6 stm=4 w=1.2e-06
XXI5/xC0 TOP_ARRAY SL3B cfmom_2t lr=2.29417e-06 nr=3 s=5e-08 spm=6 stm=4 w=1.2e-06
XXI6/xC0 TOP_ARRAY SL2B cfmom_2t lr=2.29417e-06 nr=3 s=5e-08 spm=6 stm=4 w=1.2e-06
XXI7/xC0 TOP_ARRAY SL1A cfmom_2t lr=2.29417e-06 nr=3 s=5e-08 spm=6 stm=4 w=1.2e-06
XXI8/xC0 TOP_ARRAY SL1B cfmom_2t lr=2.29417e-06 nr=3 s=5e-08 spm=6 stm=4 w=1.2e-06
XXI9/xC0 TOP_ARRAY SL2A cfmom_2t lr=2.29417e-06 nr=3 s=5e-08 spm=6 stm=4 w=1.2e-06
XXI10/xC0 TOP_ARRAY SL3B cfmom_2t lr=2.29417e-06 nr=3 s=5e-08 spm=6 stm=4 w=1.2e-06
XXI11/xC0 TOP_ARRAY SL3A cfmom_2t lr=2.29417e-06 nr=3 s=5e-08 spm=6 stm=4 w=1.2e-06
XXI12/xC0 TOP_ARRAY SL2B cfmom_2t lr=2.29417e-06 nr=3 s=5e-08 spm=6 stm=4 w=1.2e-06
XXI13/xC0 TOP_ARRAY SL3A cfmom_2t lr=2.29417e-06 nr=3 s=5e-08 spm=6 stm=4 w=1.2e-06
XXI14/xC0 TOP_ARRAY SL3B cfmom_2t lr=2.29417e-06 nr=3 s=5e-08 spm=6 stm=4 w=1.2e-06
XXI34/xC0 TOP_ARRAY VSS09A cfmom_2t lr=2.29417e-06 nr=3 s=5e-08 spm=6 stm=4 w=1.2e-06
XXI35/xC0 TOP_ARRAY VSS09A cfmom_2t lr=2.29417e-06 nr=3 s=5e-08 spm=6 stm=4 w=1.2e-06
XXI36/xC0 TOP_ARRAY VSS09A cfmom_2t lr=2.29417e-06 nr=3 s=5e-08 spm=6 stm=4 w=1.2e-06
XXI37/xC0 TOP_ARRAY VSS09A cfmom_2t lr=2.29417e-06 nr=3 s=5e-08 spm=6 stm=4 w=1.2e-06

.ENDS

