*
*|DSPF 1.3
*|DESIGN ARRAY_CMP_T1
*|DATE "Wed May  5 17:10:01 2021"
*|VENDOR "Synopsys"
*|PROGRAM "StarRC"
*|VERSION "K-2015.06-SP1"
*|DIVIDER /
*|DELIMITER :
**FORMAT CONLY
*

** COMMENTS

** OPERATING_TEMPERATURE 25
** GLOBAL_TEMPERATURE 25
** TCAD_GRD_FILE /raidj/user/t28/t28u25/etron/ADC_SAR4BIT/runLPE/cln28hpc+_1p09m+ut-alrdl_6x2z_typical.nxtgrd
**   TCAD_TIME_STAMP Thu Jun 25 12:48:01 2015
**   TCADGRD_VERSION 80
** HALF_NODE_SCALE_FACTOR 0.9


.SUBCKT ARRAY_CMP_T1 SL1A SL1B SL2A SL2B SL3A SL3B TOP_ARRAY VDD09A VSS09A

*|GROUND_NET 0

*|NET TOP_ARRAY 0.0164136PF
Cg1_1 TOP_ARRAY 0 5.18195e-15

*|NET SL3A 0.00402234PF
C3_2 SL3A TOP_ARRAY 3.20363e-15
Cg3_3 SL3A 0 3.69764e-16

*|NET SL2A 0.0028178PF
C4_4 SL2A SL3A 8.99819e-17
C4_5 SL2A TOP_ARRAY 1.6015e-15
Cg4_6 SL2A 0 3.02827e-16

*|NET SL1A 0.00150873PF
C5_7 SL1A SL2A 1.37733e-16
C5_8 SL1A TOP_ARRAY 8.02079e-16
Cg5_9 SL1A 0 4.0706e-16

*|NET SL1B 0.0012387PF
C7_10 SL1B TOP_ARRAY 8.19093e-16
Cg7_11 SL1B 0 2.25187e-16

*|NET SL2B 0.00265281PF
C8_12 SL2B SL1B 1.94419e-16
C8_13 SL2B SL1A 1.6186e-16
C8_14 SL2B SL2A 3.41129e-16
C8_15 SL2B TOP_ARRAY 1.6016e-15
Cg8_16 SL2B 0 1.90195e-16

*|NET SL3B 0.00434827PF
C9_17 SL3B SL2B 1.63605e-16
C9_18 SL3B SL2A 3.44631e-16
C9_19 SL3B SL3A 3.58959e-16
C9_20 SL3B TOP_ARRAY 3.20377e-15
Cg9_21 SL3B 0 2.77302e-16

*
* Instance Section
*
XXI0/xC0 TOP_ARRAY VSS09A cfmom_2t lr=2.29417e-06 nr=3 s=5e-08 spm=6 stm=4 w=1.2e-06
XXI1/xC0 TOP_ARRAY SL3B cfmom_2t lr=2.29417e-06 nr=3 s=5e-08 spm=6 stm=4 w=1.2e-06
XXI2/xC0 TOP_ARRAY SL3A cfmom_2t lr=2.29417e-06 nr=3 s=5e-08 spm=6 stm=4 w=1.2e-06
XXI3/xC0 TOP_ARRAY SL2A cfmom_2t lr=2.29417e-06 nr=3 s=5e-08 spm=6 stm=4 w=1.2e-06
XXI4/xC0 TOP_ARRAY SL3A cfmom_2t lr=2.29417e-06 nr=3 s=5e-08 spm=6 stm=4 w=1.2e-06
XXI5/xC0 TOP_ARRAY SL3B cfmom_2t lr=2.29417e-06 nr=3 s=5e-08 spm=6 stm=4 w=1.2e-06
XXI6/xC0 TOP_ARRAY SL2B cfmom_2t lr=2.29417e-06 nr=3 s=5e-08 spm=6 stm=4 w=1.2e-06
XXI7/xC0 TOP_ARRAY SL1A cfmom_2t lr=2.29417e-06 nr=3 s=5e-08 spm=6 stm=4 w=1.2e-06
XXI8/xC0 TOP_ARRAY SL1B cfmom_2t lr=2.29417e-06 nr=3 s=5e-08 spm=6 stm=4 w=1.2e-06
XXI9/xC0 TOP_ARRAY SL2A cfmom_2t lr=2.29417e-06 nr=3 s=5e-08 spm=6 stm=4 w=1.2e-06
XXI10/xC0 TOP_ARRAY SL3B cfmom_2t lr=2.29417e-06 nr=3 s=5e-08 spm=6 stm=4 w=1.2e-06
XXI11/xC0 TOP_ARRAY SL3A cfmom_2t lr=2.29417e-06 nr=3 s=5e-08 spm=6 stm=4 w=1.2e-06
XXI12/xC0 TOP_ARRAY SL2B cfmom_2t lr=2.29417e-06 nr=3 s=5e-08 spm=6 stm=4 w=1.2e-06
XXI13/xC0 TOP_ARRAY SL3A cfmom_2t lr=2.29417e-06 nr=3 s=5e-08 spm=6 stm=4 w=1.2e-06
XXI14/xC0 TOP_ARRAY SL3B cfmom_2t lr=2.29417e-06 nr=3 s=5e-08 spm=6 stm=4 w=1.2e-06
XXI34/xC0 TOP_ARRAY VSS09A cfmom_2t lr=2.29417e-06 nr=3 s=5e-08 spm=6 stm=4 w=1.2e-06
XXI35/xC0 TOP_ARRAY VSS09A cfmom_2t lr=2.29417e-06 nr=3 s=5e-08 spm=6 stm=4 w=1.2e-06
XXI36/xC0 TOP_ARRAY VSS09A cfmom_2t lr=2.29417e-06 nr=3 s=5e-08 spm=6 stm=4 w=1.2e-06
XXI37/xC0 TOP_ARRAY VSS09A cfmom_2t lr=2.29417e-06 nr=3 s=5e-08 spm=6 stm=4 w=1.2e-06

.ENDS

