*
*|DSPF 1.3
*|DESIGN ARRAY_CMP_T1
*|DATE "Sun Apr  4 16:36:13 2021"
*|VENDOR "Synopsys"
*|PROGRAM "StarRC"
*|VERSION "K-2015.06-SP1"
*|DIVIDER /
*|DELIMITER :
**FORMAT CONLY
*

** COMMENTS

** OPERATING_TEMPERATURE 25
** GLOBAL_TEMPERATURE 25
** TCAD_GRD_FILE /raidj/user/t28/t28u25/etron/ADC_SAR4BIT/runLPE/cln28hpc+_1p09m+ut-alrdl_6x2z_typical.nxtgrd
**   TCAD_TIME_STAMP Thu Jun 25 12:48:01 2015
**   TCADGRD_VERSION 80
** HALF_NODE_SCALE_FACTOR 0.9


.SUBCKT ARRAY_CMP_T1 SL1A SL1B SL2A SL2B SL3A SL3B TOP_ARRAY VDD09A VSS09A

*|GROUND_NET 0

*|NET SL3B 0.00711093PF
Cg2_1 SL3B 0 7.20671e-16

*|NET SL3A 0.00734108PF
C3_2 SL3A SL3B 1.20292e-15
Cg3_3 SL3A 0 8.85542e-16

*|NET SL2B 0.00385763PF
C4_4 SL2B SL3A 2.63204e-16
Cg4_5 SL2B 0 3.31709e-16

*|NET SL1B 0.00208651PF
C5_6 SL1B SL2B 3.52864e-16
Cg5_7 SL1B 0 3.67584e-16

*|NET TOP_ARRAY 0.0247313PF
C7_8 TOP_ARRAY SL1B 1.19044e-15
C7_9 TOP_ARRAY SL2B 2.38087e-15
C7_10 TOP_ARRAY SL3A 4.76203e-15
C7_11 TOP_ARRAY SL3B 4.76189e-15
Cg7_12 TOP_ARRAY 0 8.06425e-15

*|NET SL2A 0.00365972PF
C8_13 SL2A TOP_ARRAY 2.38101e-15
C8_14 SL2A SL2B 3.47755e-16
C8_15 SL2A SL3A 1.6493e-16
C8_16 SL2A SL3B 4.25447e-16
Cg8_17 SL2A 0 1.65594e-16

*|NET SL1A 0.00195763PF
C9_18 SL1A SL2A 1.74988e-16
C9_19 SL1A TOP_ARRAY 1.19087e-15
C9_20 SL1A SL1B 1.75629e-16
C9_21 SL1A SL2B 1.81222e-16
C9_22 SL1A SL3A 6.24561e-17
Cg9_23 SL1A 0 1.72467e-16

*
* Instance Section
*
XXI0/xC0 TOP_ARRAY VSS09A cfmom_2t lr=3.16106e-06 nr=3 s=5e-08 spm=6 stm=4 w=1.77667e-06
XXI1/xC0 TOP_ARRAY SL3B cfmom_2t lr=3.16106e-06 nr=3 s=5e-08 spm=6 stm=4 w=1.77667e-06
XXI2/xC0 TOP_ARRAY SL3A cfmom_2t lr=3.16106e-06 nr=3 s=5e-08 spm=6 stm=4 w=1.77667e-06
XXI3/xC0 TOP_ARRAY SL2A cfmom_2t lr=3.16106e-06 nr=3 s=5e-08 spm=6 stm=4 w=1.77667e-06
XXI4/xC0 TOP_ARRAY SL3A cfmom_2t lr=3.16106e-06 nr=3 s=5e-08 spm=6 stm=4 w=1.77667e-06
XXI5/xC0 TOP_ARRAY SL3B cfmom_2t lr=3.16106e-06 nr=3 s=5e-08 spm=6 stm=4 w=1.77667e-06
XXI6/xC0 TOP_ARRAY SL2B cfmom_2t lr=3.16106e-06 nr=3 s=5e-08 spm=6 stm=4 w=1.77667e-06
XXI7/xC0 TOP_ARRAY SL1A cfmom_2t lr=3.16106e-06 nr=3 s=5e-08 spm=6 stm=4 w=1.77667e-06
XXI8/xC0 TOP_ARRAY SL1B cfmom_2t lr=3.16106e-06 nr=3 s=5e-08 spm=6 stm=4 w=1.77667e-06
XXI9/xC0 TOP_ARRAY SL2A cfmom_2t lr=3.16106e-06 nr=3 s=5e-08 spm=6 stm=4 w=1.77667e-06
XXI10/xC0 TOP_ARRAY SL3B cfmom_2t lr=3.16106e-06 nr=3 s=5e-08 spm=6 stm=4 w=1.77667e-06
XXI11/xC0 TOP_ARRAY SL3A cfmom_2t lr=3.16106e-06 nr=3 s=5e-08 spm=6 stm=4 w=1.77667e-06
XXI12/xC0 TOP_ARRAY SL2B cfmom_2t lr=3.16106e-06 nr=3 s=5e-08 spm=6 stm=4 w=1.77667e-06
XXI13/xC0 TOP_ARRAY SL3A cfmom_2t lr=3.16106e-06 nr=3 s=5e-08 spm=6 stm=4 w=1.77667e-06
XXI14/xC0 TOP_ARRAY SL3B cfmom_2t lr=3.16106e-06 nr=3 s=5e-08 spm=6 stm=4 w=1.77667e-06
XXI34/xC0 TOP_ARRAY VSS09A cfmom_2t lr=3.16106e-06 nr=3 s=5e-08 spm=6 stm=4 w=1.77667e-06
XXI35/xC0 TOP_ARRAY VSS09A cfmom_2t lr=3.16106e-06 nr=3 s=5e-08 spm=6 stm=4 w=1.77667e-06
XXI36/xC0 TOP_ARRAY VSS09A cfmom_2t lr=3.16106e-06 nr=3 s=5e-08 spm=6 stm=4 w=1.77667e-06
XXI37/xC0 TOP_ARRAY VSS09A cfmom_2t lr=3.16106e-06 nr=3 s=5e-08 spm=6 stm=4 w=1.77667e-06

.ENDS

