*
*|DSPF 1.3
*|DESIGN ARRAY_CMP_T1
*|DATE "Tue May  4 16:41:25 2021"
*|VENDOR "Synopsys"
*|PROGRAM "StarRC"
*|VERSION "K-2015.06-SP1"
*|DIVIDER /
*|DELIMITER :
**FORMAT CONLY
*

** COMMENTS

** OPERATING_TEMPERATURE 25
** GLOBAL_TEMPERATURE 25
** TCAD_GRD_FILE /raidj/user/t28/t28u25/etron/ADC_SAR4BIT/runLPE/cln28hpc+_1p09m+ut-alrdl_6x2z_typical.nxtgrd
**   TCAD_TIME_STAMP Thu Jun 25 12:48:01 2015
**   TCADGRD_VERSION 80
** HALF_NODE_SCALE_FACTOR 0.9


.SUBCKT ARRAY_CMP_T1 SL1A SL1B SL2A SL2B SL3A SL3B TOP_ARRAY VDD09A VSS09A

*|GROUND_NET 0

*|NET SL2B 0.00296217PF
Cg1_1 SL2B 0 3.07385e-16

*|NET SL3B 0.00561367PF
C2_2 SL3B SL2B 1.751e-16
Cg2_3 SL3B 0 3.94378e-16

*|NET SL3A 0.00547237PF
C3_4 SL3A SL3B 1.3111e-15
C3_5 SL3A SL2B 8.85413e-17
Cg3_6 SL3A 0 5.62624e-16

*|NET SL1B 0.00148321PF
C4_7 SL1B SL3A 1.07297e-16
C4_8 SL1B SL2B 1.86127e-16
Cg4_9 SL1B 0 2.22493e-16

*|NET TOP_ARRAY 0.016414PF
C5_10 TOP_ARRAY SL1B 8.00862e-16
C5_11 TOP_ARRAY SL3A 3.22236e-15
C5_12 TOP_ARRAY SL3B 3.20359e-15
C5_13 TOP_ARRAY SL2B 1.60157e-15
Cg5_14 TOP_ARRAY 0 5.18172e-15

*|NET SL2A 0.00289864PF
C8_15 SL2A TOP_ARRAY 1.60157e-15
C8_16 SL2A SL3A 9.39205e-17
C8_17 SL2A SL3B 5.29504e-16
C8_18 SL2A SL2B 3.99784e-16
Cg8_19 SL2A 0 2.73862e-16

*|NET SL1A 0.00143537PF
C9_20 SL1A TOP_ARRAY 8.02318e-16
C9_21 SL1A SL1B 1.66429e-16
C9_22 SL1A SL3A 8.65348e-17
C9_23 SL1A SL2B 2.0367e-16
Cg9_24 SL1A 0 1.76423e-16

*
* Instance Section
*
XXI0/xC0 TOP_ARRAY VSS09A cfmom_2t lr=2.29417e-06 nr=3 s=5e-08 spm=6 stm=4 w=1.2e-06
XXI1/xC0 TOP_ARRAY SL3B cfmom_2t lr=2.29417e-06 nr=3 s=5e-08 spm=6 stm=4 w=1.2e-06
XXI2/xC0 TOP_ARRAY SL3A cfmom_2t lr=2.29417e-06 nr=3 s=5e-08 spm=6 stm=4 w=1.2e-06
XXI3/xC0 TOP_ARRAY SL2A cfmom_2t lr=2.29417e-06 nr=3 s=5e-08 spm=6 stm=4 w=1.2e-06
XXI4/xC0 TOP_ARRAY SL3A cfmom_2t lr=2.29417e-06 nr=3 s=5e-08 spm=6 stm=4 w=1.2e-06
XXI5/xC0 TOP_ARRAY SL3B cfmom_2t lr=2.29417e-06 nr=3 s=5e-08 spm=6 stm=4 w=1.2e-06
XXI6/xC0 TOP_ARRAY SL2B cfmom_2t lr=2.29417e-06 nr=3 s=5e-08 spm=6 stm=4 w=1.2e-06
XXI7/xC0 TOP_ARRAY SL1A cfmom_2t lr=2.29417e-06 nr=3 s=5e-08 spm=6 stm=4 w=1.2e-06
XXI8/xC0 TOP_ARRAY SL1B cfmom_2t lr=2.29417e-06 nr=3 s=5e-08 spm=6 stm=4 w=1.2e-06
XXI9/xC0 TOP_ARRAY SL2A cfmom_2t lr=2.29417e-06 nr=3 s=5e-08 spm=6 stm=4 w=1.2e-06
XXI10/xC0 TOP_ARRAY SL3B cfmom_2t lr=2.29417e-06 nr=3 s=5e-08 spm=6 stm=4 w=1.2e-06
XXI11/xC0 TOP_ARRAY SL3A cfmom_2t lr=2.29417e-06 nr=3 s=5e-08 spm=6 stm=4 w=1.2e-06
XXI12/xC0 TOP_ARRAY SL2B cfmom_2t lr=2.29417e-06 nr=3 s=5e-08 spm=6 stm=4 w=1.2e-06
XXI13/xC0 TOP_ARRAY SL3A cfmom_2t lr=2.29417e-06 nr=3 s=5e-08 spm=6 stm=4 w=1.2e-06
XXI14/xC0 TOP_ARRAY SL3B cfmom_2t lr=2.29417e-06 nr=3 s=5e-08 spm=6 stm=4 w=1.2e-06
XXI34/xC0 TOP_ARRAY VSS09A cfmom_2t lr=2.29417e-06 nr=3 s=5e-08 spm=6 stm=4 w=1.2e-06
XXI35/xC0 TOP_ARRAY VSS09A cfmom_2t lr=2.29417e-06 nr=3 s=5e-08 spm=6 stm=4 w=1.2e-06
XXI36/xC0 TOP_ARRAY VSS09A cfmom_2t lr=2.29417e-06 nr=3 s=5e-08 spm=6 stm=4 w=1.2e-06
XXI37/xC0 TOP_ARRAY VSS09A cfmom_2t lr=2.29417e-06 nr=3 s=5e-08 spm=6 stm=4 w=1.2e-06

.ENDS

