*
*|DSPF 1.3
*|DESIGN ARRAY_CMP_T1
*|DATE "Mon Mar 15 20:37:58 2021"
*|VENDOR "Synopsys"
*|PROGRAM "StarRC"
*|VERSION "K-2015.06-SP1"
*|DIVIDER /
*|DELIMITER :
**FORMAT SPF
*

** COMMENTS

** OPERATING_TEMPERATURE 25
** GLOBAL_TEMPERATURE 25
** TCAD_GRD_FILE /raidj/user/t28/t28u25/etron/ADC_SAR4BIT/runLPE/cln28hpc+_1p09m+ut-alrdl_6x2z_typical.nxtgrd
**   TCAD_TIME_STAMP Thu Jun 25 12:48:01 2015
**   TCADGRD_VERSION 80
** HALF_NODE_SCALE_FACTOR 0.9


.SUBCKT ARRAY_CMP_T1 SL1A SL1B SL2A SL2B SL3A SL3B TOP_ARRAY VDD09A VSS09A

*|GROUND_NET 0

*|NET SL3B 0.00388833PF
*|P (SL3B O 0 1.88989 -0.614889)
*|I (XI14/xC0:T2 XI14/xC0 T2 B 0 1.88989 1.30989)
*|I (XI10/xC0:T2 XI10/xC0 T2 B 0 2.09989 1.30989)
*|I (XI5/xC0:T2 XI5/xC0 T2 B 0 2.30989 1.30989)
*|I (XI1/xC0:T2 XI1/xC0 T2 B 0 2.51989 1.30989)
Cg4_1 SL3B 0 1.19927e-16
Cg4_2 XI14/xC0:T2 0 8.07117e-18
Cg4_3 XI5/xC0:T2 0 6.28698e-17
Cg4_4 XI1/xC0:T2 0 3.9559e-17
Cg4_5 SL3B:1 0 3.86766e-17
Cg4_6 SL3B:2 0 6.50148e-17
R4_1 SL3B XI14/xC0:T2 43.8458
R4_2 SL3B SL3B:2 0.60658
R4_3 XI10/xC0:T2 SL3B:2 43.9928
R4_4 XI5/xC0:T2 SL3B:1 43.9928
R4_5 XI1/xC0:T2 SL3B:1 44.4503
R4_6 SL3B:1 SL3B:2 0.60658

*|NET SL3A 0.00377472PF
*|P (SL3A O 0 1.04989 -0.504889)
*|I (XI13/xC0:T2 XI13/xC0 T2 B 0 1.04989 1.30989)
*|I (XI11/xC0:T2 XI11/xC0 T2 B 0 1.25989 1.30989)
*|I (XI4/xC0:T2 XI4/xC0 T2 B 0 1.46989 1.30989)
*|I (XI2/xC0:T2 XI2/xC0 T2 B 0 1.67989 1.30989)
Cg7_7 SL3A 0 1.6774e-16
Cg7_8 SL3A:1 0 9.49174e-17
Cg7_9 SL3A:2 0 3.23208e-17
Cg7_10 XI13/xC0:T2 0 6.35565e-17
Cg7_11 XI11/xC0:T2 0 2.43789e-17
C7_12 XI4/xC0:T2 XI14/xC0:T2 4.72471e-18
Cg7_13 XI4/xC0:T2 0 3.78647e-18
C7_14 XI2/xC0:T2 XI14/xC0:T2 1.6473e-16
C7_15 XI2/xC0:T2 SL3B:2 2.85334e-18
C7_16 XI2/xC0:T2 XI10/xC0:T2 2.1233e-18
Cg7_17 XI2/xC0:T2 0 1.00884e-17
R7_7 SL3A SL3A:2 0.566253
R7_8 SL3A XI13/xC0:T2 27.4731
R7_9 SL3A:1 XI2/xC0:T2 28.042
R7_10 SL3A:1 SL3A:2 0.566253
R7_11 SL3A:1 XI4/xC0:T2 27.5929
R7_12 SL3A:2 XI11/xC0:T2 27.5929

*|NET SL2B 0.00216403PF
*|P (SL2B O 0 3.14989 -0.944889)
*|I (XI12/xC0:T2 XI12/xC0 T2 B 0 3.14989 1.30989)
*|I (XI6/xC0:T2 XI6/xC0 T2 B 0 3.35989 1.30989)
Cg5_18 SL2B 0 1.80499e-16
Cg5_19 XI12/xC0:T2 0 2.43746e-17
Cg5_20 XI6/xC0:T2 0 3.88587e-18
R5_13 SL2B XI6/xC0:T2 45.4237
R5_14 SL2B XI12/xC0:T2 44.8026

*|NET SL2A 0.00209607PF
*|P (SL2A O 0 2.72989 -0.834889)
*|I (XI9/xC0:T2 XI9/xC0 T2 B 0 2.72989 1.30989)
*|I (XI3/xC0:T2 XI3/xC0 T2 B 0 2.93989 1.30989)
C8_21 SL2A SL2B 7.6357e-17
C8_22 SL2A XI12/xC0:T2 4.81933e-17
Cg8_23 SL2A 0 9.315e-17
C8_24 XI9/xC0:T2 SL2B 1.96525e-18
C8_25 XI9/xC0:T2 XI1/xC0:T2 1.50532e-16
C8_26 XI9/xC0:T2 XI5/xC0:T2 5.37828e-18
C8_27 XI9/xC0:T2 SL3B:1 1.64377e-17
C8_28 XI9/xC0:T2 XI12/xC0:T2 2.88815e-18
Cg8_29 XI9/xC0:T2 0 1.49881e-17
C8_30 XI3/xC0:T2 SL2B 1.83426e-17
C8_31 XI3/xC0:T2 XI1/xC0:T2 4.2014e-18
C8_32 XI3/xC0:T2 SL3B:1 2.33986e-20
C8_33 XI3/xC0:T2 XI6/xC0:T2 2.90412e-18
C8_34 XI3/xC0:T2 XI12/xC0:T2 2.95193e-17
Cg8_35 XI3/xC0:T2 0 2.96244e-17
R8_15 SL2A XI9/xC0:T2 28.4345
R8_16 SL2A XI3/xC0:T2 28.9981

*|NET SL1B 0.00128348PF
*|P (SL1B O 0 3.78489 -1.27489)
*|I (XI8/xC0:T2 XI8/xC0 T2 B 0 3.77989 1.30989)
Cg6_36 SL1B 0 2.49776e-16
Cg6_37 XI8/xC0:T2 0 5.79567e-17
R6_17 SL1B XI8/xC0:T2 45.516

*|NET SL1A 0.00124299PF
*|P (SL1A O 0 3.56989 -1.16489)
*|I (XI7/xC0:T2 XI7/xC0 T2 B 0 3.56989 1.30989)
C9_38 SL1A XI6/xC0:T2 8.59061e-17
C9_39 SL1A XI8/xC0:T2 1.23045e-16
Cg9_40 SL1A 0 4.16351e-17
C9_41 XI7/xC0:T2 SL2B 5.51407e-17
C9_42 XI7/xC0:T2 SL1B 2.23622e-17
C9_43 XI7/xC0:T2 XI8/xC0:T2 2.95193e-17
C9_44 XI7/xC0:T2 XI6/xC0:T2 2.95193e-17
C9_45 XI7/xC0:T2 XI12/xC0:T2 2.90412e-18
Cg9_46 XI7/xC0:T2 0 5.20786e-17
R9_18 SL1A XI7/xC0:T2 29.1496

*|NET TOP_ARRAY 0.0167444PF
*|P (TOP_ARRAY O 0 0.627889 2.56489)
*|I (XI37/xC0:T1 XI37/xC0 T1 B 0 4.32244 1.63489)
*|I (XI35/xC0:T1 XI35/xC0 T1 B 0 3.90244 1.63489)
*|I (XI34/xC0:T1 XI34/xC0 T1 B 0 4.11244 1.63489)
*|I (XI0/xC0:T1 XI0/xC0 T1 B 0 0.542444 1.63489)
*|I (XI36/xC0:T1 XI36/xC0 T1 B 0 0.752444 1.63489)
*|I (XI13/xC0:T1 XI13/xC0 T1 B 0 0.962444 1.63489)
*|I (XI11/xC0:T1 XI11/xC0 T1 B 0 1.17244 1.63489)
*|I (XI4/xC0:T1 XI4/xC0 T1 B 0 1.38244 1.63489)
*|I (XI2/xC0:T1 XI2/xC0 T1 B 0 1.59244 1.63489)
*|I (XI14/xC0:T1 XI14/xC0 T1 B 0 1.80244 1.63489)
*|I (XI10/xC0:T1 XI10/xC0 T1 B 0 2.01244 1.63489)
*|I (XI5/xC0:T1 XI5/xC0 T1 B 0 2.22244 1.63489)
*|I (XI1/xC0:T1 XI1/xC0 T1 B 0 2.43244 1.63489)
*|I (XI9/xC0:T1 XI9/xC0 T1 B 0 2.64244 1.63489)
*|I (XI3/xC0:T1 XI3/xC0 T1 B 0 2.85244 1.63489)
*|I (XI12/xC0:T1 XI12/xC0 T1 B 0 3.06244 1.63489)
*|I (XI6/xC0:T1 XI6/xC0 T1 B 0 3.27244 1.63489)
*|I (XI7/xC0:T1 XI7/xC0 T1 B 0 3.48244 1.63489)
*|I (XI8/xC0:T1 XI8/xC0 T1 B 0 3.69244 1.63489)
Cg3_47 TOP_ARRAY 0 2.96242e-17
C3_48 TOP_ARRAY:18 XI14/xC0:T2 4.18589e-18
C3_49 TOP_ARRAY:18 XI2/xC0:T2 4.18589e-18
C3_50 TOP_ARRAY:18 XI3/xC0:T2 4.18589e-18
C3_51 TOP_ARRAY:18 XI4/xC0:T2 3.67749e-18
C3_52 TOP_ARRAY:18 XI9/xC0:T2 4.18589e-18
C3_53 TOP_ARRAY:18 SL3A:1 5.08409e-19
C3_54 TOP_ARRAY:18 XI1/xC0:T2 4.18589e-18
C3_55 TOP_ARRAY:18 XI11/xC0:T2 4.18589e-18
C3_56 TOP_ARRAY:18 XI8/xC0:T2 4.18589e-18
C3_57 TOP_ARRAY:18 XI5/xC0:T2 4.18589e-18
C3_58 TOP_ARRAY:18 XI13/xC0:T2 4.18589e-18
C3_59 TOP_ARRAY:18 XI7/xC0:T2 4.18589e-18
C3_60 TOP_ARRAY:18 XI6/xC0:T2 4.18589e-18
C3_61 TOP_ARRAY:18 XI10/xC0:T2 4.18589e-18
C3_62 TOP_ARRAY:18 XI12/xC0:T2 4.18589e-18
Cg3_63 TOP_ARRAY:18 0 3.5577e-16
Cg3_64 TOP_ARRAY:19 0 4.67671e-16
Cg3_65 TOP_ARRAY:20 0 6.46289e-16
Cg3_66 TOP_ARRAY:21 0 2.70249e-16
Cg3_67 TOP_ARRAY:22 0 2.73573e-16
Cg3_68 TOP_ARRAY:23 0 2.70521e-16
C3_69 TOP_ARRAY:24 SL1A 1.29128e-16
C3_70 TOP_ARRAY:24 SL1B 1.29563e-16
Cg3_71 TOP_ARRAY:24 0 1.48227e-17
C3_72 TOP_ARRAY:25 SL1A 1.09103e-16
C3_73 TOP_ARRAY:25 XI7/xC0:T2 1.25936e-17
C3_74 TOP_ARRAY:25 XI8/xC0:T2 1.46867e-16
Cg3_75 TOP_ARRAY:25 0 1.95776e-18
C3_76 TOP_ARRAY:26 SL2B 1.29098e-16
C3_77 TOP_ARRAY:26 XI7/xC0:T2 4.94871e-19
C3_78 TOP_ARRAY:26 XI8/xC0:T2 1.28634e-16
Cg3_79 TOP_ARRAY:26 0 1.52804e-17
C3_80 TOP_ARRAY:27 XI6/xC0:T2 1.21696e-16
C3_81 TOP_ARRAY:27 XI7/xC0:T2 2.51703e-17
C3_82 TOP_ARRAY:27 XI8/xC0:T2 1.20854e-16
Cg3_83 TOP_ARRAY:27 0 2.80034e-18
C3_84 TOP_ARRAY:28 SL2B 1.29098e-16
C3_85 TOP_ARRAY:28 XI6/xC0:T2 4.64755e-19
C3_86 TOP_ARRAY:28 XI7/xC0:T2 1.28634e-16
Cg3_87 TOP_ARRAY:28 0 1.5295e-17
C3_88 TOP_ARRAY:29 XI12/xC0:T2 1.21696e-16
C3_89 TOP_ARRAY:29 XI6/xC0:T2 2.51704e-17
C3_90 TOP_ARRAY:29 XI7/xC0:T2 1.20854e-16
Cg3_91 TOP_ARRAY:29 0 2.8003e-18
C3_92 TOP_ARRAY:30 SL2A 1.29127e-16
C3_93 TOP_ARRAY:30 XI12/xC0:T2 4.64755e-19
C3_94 TOP_ARRAY:30 XI6/xC0:T2 1.28634e-16
Cg3_95 TOP_ARRAY:30 0 1.52658e-17
C3_96 TOP_ARRAY:31 SL2A 1.09103e-16
C3_97 TOP_ARRAY:31 XI3/xC0:T2 1.25936e-17
C3_98 TOP_ARRAY:31 XI12/xC0:T2 2.51704e-17
C3_99 TOP_ARRAY:31 XI6/xC0:T2 1.20854e-16
Cg3_100 TOP_ARRAY:31 0 2.80041e-18
C3_101 TOP_ARRAY:32 XI3/xC0:T2 1.16525e-16
C3_102 TOP_ARRAY:32 XI12/xC0:T2 1.28634e-16
Cg3_103 TOP_ARRAY:32 0 2.83626e-17
C3_104 TOP_ARRAY:33 XI9/xC0:T2 1.2164e-17
C3_105 TOP_ARRAY:33 XI3/xC0:T2 1.33018e-16
C3_106 TOP_ARRAY:33 XI12/xC0:T2 1.20854e-16
Cg3_107 TOP_ARRAY:33 0 4.48509e-18
C3_108 TOP_ARRAY:34 SL2A 1.17321e-16
C3_109 TOP_ARRAY:34 XI9/xC0:T2 1.22993e-17
C3_110 TOP_ARRAY:34 XI3/xC0:T2 1.2602e-17
C3_111 TOP_ARRAY:34 SL3B:1 1.29098e-16
Cg3_112 TOP_ARRAY:34 0 2.2003e-18
C3_113 TOP_ARRAY:35 SL2A 1.0923e-16
C3_114 TOP_ARRAY:35 XI1/xC0:T2 1.25936e-17
C3_115 TOP_ARRAY:35 XI9/xC0:T2 2.54729e-17
C3_116 TOP_ARRAY:35 XI3/xC0:T2 1.30064e-17
C3_117 TOP_ARRAY:35 SL3B:1 1.09103e-16
Cg3_118 TOP_ARRAY:35 0 1.11551e-18
C3_119 TOP_ARRAY:36 SL2A 1.28634e-16
C3_120 TOP_ARRAY:36 XI5/xC0:T2 1.22047e-17
C3_121 TOP_ARRAY:36 XI1/xC0:T2 4.64755e-19
C3_122 TOP_ARRAY:36 SL3B:1 1.16894e-16
Cg3_123 TOP_ARRAY:36 0 1.52946e-17
C3_124 TOP_ARRAY:37 XI5/xC0:T2 1.25936e-17
C3_125 TOP_ARRAY:37 XI1/xC0:T2 2.51704e-17
C3_126 TOP_ARRAY:37 XI9/xC0:T2 1.20854e-16
C3_127 TOP_ARRAY:37 SL3B:1 1.09103e-16
Cg3_128 TOP_ARRAY:37 0 2.8003e-18
C3_129 TOP_ARRAY:38 XI5/xC0:T2 4.64755e-19
C3_130 TOP_ARRAY:38 XI1/xC0:T2 1.28634e-16
C3_131 TOP_ARRAY:38 SL3B:2 1.29098e-16
Cg3_132 TOP_ARRAY:38 0 1.52795e-17
C3_133 TOP_ARRAY:39 XI10/xC0:T2 9.08087e-17
C3_134 TOP_ARRAY:39 XI5/xC0:T2 2.51704e-17
C3_135 TOP_ARRAY:39 XI1/xC0:T2 1.20854e-16
C3_136 TOP_ARRAY:39 SL3B:2 3.08876e-17
Cg3_137 TOP_ARRAY:39 0 2.80038e-18
C3_138 TOP_ARRAY:40 SL3B 1.16894e-16
C3_139 TOP_ARRAY:40 XI14/xC0:T2 1.22047e-17
C3_140 TOP_ARRAY:40 XI10/xC0:T2 4.64755e-19
C3_141 TOP_ARRAY:40 XI5/xC0:T2 1.28634e-16
Cg3_142 TOP_ARRAY:40 0 1.52795e-17
C3_143 TOP_ARRAY:41 SL3B 1.09103e-16
C3_144 TOP_ARRAY:41 XI14/xC0:T2 1.25936e-17
C3_145 TOP_ARRAY:41 XI10/xC0:T2 2.51704e-17
C3_146 TOP_ARRAY:41 XI5/xC0:T2 1.20854e-16
Cg3_147 TOP_ARRAY:41 0 2.80038e-18
C3_148 TOP_ARRAY:42 SL3A:1 1.16924e-16
C3_149 TOP_ARRAY:42 XI2/xC0:T2 1.22039e-17
C3_150 TOP_ARRAY:42 XI14/xC0:T2 4.64755e-19
C3_151 TOP_ARRAY:42 XI10/xC0:T2 1.28634e-16
Cg3_152 TOP_ARRAY:42 0 1.52646e-17
C3_153 TOP_ARRAY:43 SL3A:1 1.0896e-16
C3_154 TOP_ARRAY:43 XI2/xC0:T2 1.27364e-17
C3_155 TOP_ARRAY:43 XI14/xC0:T2 2.51704e-17
C3_156 TOP_ARRAY:43 XI10/xC0:T2 1.20854e-16
Cg3_157 TOP_ARRAY:43 0 2.80041e-18
Cg3_158 XI0/xC0:T1 0 1.80368e-17
C3_159 TOP_ARRAY:44 SL3A:1 1.29128e-16
C3_160 TOP_ARRAY:44 XI2/xC0:T2 4.94532e-19
C3_161 TOP_ARRAY:44 XI14/xC0:T2 1.28634e-16
Cg3_162 TOP_ARRAY:44 0 1.52645e-17
C3_163 TOP_ARRAY:45 SL3A:1 1.0896e-16
C3_164 TOP_ARRAY:45 XI4/xC0:T2 1.27364e-17
C3_165 TOP_ARRAY:45 XI2/xC0:T2 2.51704e-17
C3_166 TOP_ARRAY:45 XI14/xC0:T2 1.20854e-16
Cg3_167 TOP_ARRAY:45 0 2.80035e-18
C3_168 TOP_ARRAY:46 SL3A:1 1.28634e-16
C3_169 TOP_ARRAY:46 SL3A:2 1.29128e-16
C3_170 TOP_ARRAY:46 XI4/xC0:T2 4.94532e-19
Cg3_171 TOP_ARRAY:46 0 1.52794e-17
C3_172 TOP_ARRAY:47 SL3A:1 1.25767e-17
C3_173 TOP_ARRAY:47 SL3A:2 1.21267e-16
C3_174 TOP_ARRAY:47 XI4/xC0:T2 1.25936e-17
C3_175 TOP_ARRAY:47 XI2/xC0:T2 1.20854e-16
Cg3_176 TOP_ARRAY:47 0 3.22993e-18
C3_177 TOP_ARRAY:48 XI13/xC0:T2 1.29128e-16
C3_178 TOP_ARRAY:48 XI11/xC0:T2 4.94532e-19
C3_179 TOP_ARRAY:48 XI4/xC0:T2 1.28634e-16
Cg3_180 TOP_ARRAY:48 0 1.52794e-17
C3_181 TOP_ARRAY:49 XI13/xC0:T2 1.21267e-16
C3_182 TOP_ARRAY:49 XI11/xC0:T2 2.51704e-17
C3_183 TOP_ARRAY:49 XI4/xC0:T2 1.20854e-16
Cg3_184 TOP_ARRAY:49 0 3.22992e-18
C3_185 TOP_ARRAY:50 SL3A:2 4.71093e-17
C3_186 TOP_ARRAY:50 XI11/xC0:T2 8.15243e-17
Cg3_187 TOP_ARRAY:50 0 1.44904e-16
C3_188 TOP_ARRAY:51 XI13/xC0:T2 1.25936e-17
C3_189 TOP_ARRAY:51 XI11/xC0:T2 1.21284e-16
Cg3_190 TOP_ARRAY:51 0 1.36643e-16
C3_191 TOP_ARRAY:52 SL3A 1.29128e-16
Cg3_192 TOP_ARRAY:52 0 1.43708e-16
C3_193 TOP_ARRAY:53 XI13/xC0:T2 1.27364e-17
C3_194 TOP_ARRAY:53 SL3A 1.21124e-16
Cg3_195 TOP_ARRAY:53 0 1.36646e-16
C3_196 TOP_ARRAY:54 XI14/xC0:T2 3.4074e-18
C3_197 TOP_ARRAY:54 XI2/xC0:T2 3.4074e-18
C3_198 TOP_ARRAY:54 XI3/xC0:T2 3.4074e-18
C3_199 TOP_ARRAY:54 SL3A:2 4.02802e-19
C3_200 TOP_ARRAY:54 XI4/xC0:T2 3.4074e-18
C3_201 TOP_ARRAY:54 XI9/xC0:T2 3.4074e-18
C3_202 TOP_ARRAY:54 XI1/xC0:T2 3.4074e-18
C3_203 TOP_ARRAY:54 XI11/xC0:T2 3.0046e-18
C3_204 TOP_ARRAY:54 XI8/xC0:T2 3.4074e-18
C3_205 TOP_ARRAY:54 XI5/xC0:T2 3.4074e-18
C3_206 TOP_ARRAY:54 XI13/xC0:T2 3.4074e-18
C3_207 TOP_ARRAY:54 XI7/xC0:T2 3.4074e-18
C3_208 TOP_ARRAY:54 XI6/xC0:T2 3.4074e-18
C3_209 TOP_ARRAY:54 XI10/xC0:T2 3.4074e-18
C3_210 TOP_ARRAY:54 XI12/xC0:T2 3.4074e-18
Cg3_211 TOP_ARRAY:54 0 4.81582e-16
C3_212 TOP_ARRAY:55 XI14/xC0:T2 3.91184e-18
C3_213 TOP_ARRAY:55 SL2B 3.97114e-18
C3_214 TOP_ARRAY:55 XI2/xC0:T2 3.97114e-18
C3_215 TOP_ARRAY:55 XI3/xC0:T2 3.79056e-18
C3_216 TOP_ARRAY:55 XI9/xC0:T2 3.97114e-18
C3_217 TOP_ARRAY:55 SL3A:1 3.97114e-18
C3_218 TOP_ARRAY:55 XI1/xC0:T2 3.97114e-18
C3_219 TOP_ARRAY:55 XI11/xC0:T2 3.97114e-18
C3_220 TOP_ARRAY:55 XI8/xC0:T2 3.97114e-18
C3_221 TOP_ARRAY:55 XI5/xC0:T2 3.97114e-18
C3_222 TOP_ARRAY:55 XI13/xC0:T2 3.97114e-18
C3_223 TOP_ARRAY:55 XI7/xC0:T2 3.97114e-18
C3_224 TOP_ARRAY:55 XI6/xC0:T2 3.97114e-18
C3_225 TOP_ARRAY:55 XI10/xC0:T2 3.97114e-18
Cg3_226 TOP_ARRAY:55 0 5.46251e-16
Cg3_227 TOP_ARRAY:56 0 5.33282e-16
Cg3_228 TOP_ARRAY:57 0 2.66468e-16
C3_229 TOP_ARRAY:58 XI8/xC0:T2 1.31667e-16
Cg3_230 TOP_ARRAY:58 0 1.34801e-16
C3_231 TOP_ARRAY:59 XI7/xC0:T2 1.31667e-16
C3_232 TOP_ARRAY:59 XI8/xC0:T2 1.31667e-16
Cg3_233 TOP_ARRAY:59 0 3.13363e-18
C3_234 TOP_ARRAY:60 SL2B 1.33398e-17
C3_235 TOP_ARRAY:60 XI6/xC0:T2 1.18328e-16
C3_236 TOP_ARRAY:60 XI7/xC0:T2 1.31667e-16
Cg3_237 TOP_ARRAY:60 0 3.13363e-18
C3_238 TOP_ARRAY:61 XI12/xC0:T2 1.1897e-16
C3_239 TOP_ARRAY:61 SL2B 2.60375e-17
C3_240 TOP_ARRAY:61 XI6/xC0:T2 1.18328e-16
Cg3_241 TOP_ARRAY:61 0 3.13363e-18
C3_242 TOP_ARRAY:62 XI12/xC0:T2 1.31667e-16
C3_243 TOP_ARRAY:62 XI3/xC0:T2 1.31667e-16
Cg3_244 TOP_ARRAY:62 0 3.13363e-18
C3_245 TOP_ARRAY:63 XI9/xC0:T2 1.31667e-16
C3_246 TOP_ARRAY:63 XI3/xC0:T2 1.31667e-16
Cg3_247 TOP_ARRAY:63 0 3.13363e-18
C3_248 TOP_ARRAY:64 XI1/xC0:T2 1.31667e-16
C3_249 TOP_ARRAY:64 XI9/xC0:T2 1.31667e-16
Cg3_250 TOP_ARRAY:64 0 3.13363e-18
C3_251 TOP_ARRAY:65 XI5/xC0:T2 1.31667e-16
C3_252 TOP_ARRAY:65 XI1/xC0:T2 1.31667e-16
Cg3_253 TOP_ARRAY:65 0 3.13363e-18
C3_254 TOP_ARRAY:66 XI10/xC0:T2 1.31667e-16
C3_255 TOP_ARRAY:66 XI5/xC0:T2 1.31667e-16
Cg3_256 TOP_ARRAY:66 0 3.13363e-18
C3_257 TOP_ARRAY:67 XI10/xC0:T2 1.31667e-16
C3_258 TOP_ARRAY:67 XI14/xC0:T2 1.31667e-16
Cg3_259 TOP_ARRAY:67 0 3.13363e-18
C3_260 TOP_ARRAY:68 XI2/xC0:T2 1.31667e-16
C3_261 TOP_ARRAY:68 XI14/xC0:T2 1.31667e-16
Cg3_262 TOP_ARRAY:68 0 3.13363e-18
C3_263 TOP_ARRAY:69 SL3A:1 1.33398e-17
C3_264 TOP_ARRAY:69 XI4/xC0:T2 1.18328e-16
C3_265 TOP_ARRAY:69 XI2/xC0:T2 1.31667e-16
Cg3_266 TOP_ARRAY:69 0 3.13363e-18
C3_267 TOP_ARRAY:70 XI11/xC0:T2 1.31667e-16
C3_268 TOP_ARRAY:70 SL3A:1 1.33398e-17
C3_269 TOP_ARRAY:70 XI4/xC0:T2 1.18328e-16
Cg3_270 TOP_ARRAY:70 0 3.13363e-18
C3_271 TOP_ARRAY:71 XI13/xC0:T2 1.31667e-16
C3_272 TOP_ARRAY:71 XI11/xC0:T2 1.31667e-16
Cg3_273 TOP_ARRAY:71 0 3.13363e-18
C3_274 TOP_ARRAY:72 XI13/xC0:T2 1.31667e-16
Cg3_275 TOP_ARRAY:72 0 1.34801e-16
Cg3_276 TOP_ARRAY:73 0 2.66671e-16
R3_19 TOP_ARRAY:1 TOP_ARRAY:21 8
R3_20 TOP_ARRAY:1 TOP_ARRAY:56 0.299128
R3_21 TOP_ARRAY:1 TOP_ARRAY:57 0.299128
R3_22 TOP_ARRAY:2 TOP_ARRAY:23 8
R3_23 TOP_ARRAY:2 TOP_ARRAY:57 0.299128
R3_24 TOP_ARRAY:2 TOP_ARRAY:58 0.299128
R3_25 TOP_ARRAY:3 TOP_ARRAY:25 8
R3_26 TOP_ARRAY:3 TOP_ARRAY:58 0.299128
R3_27 TOP_ARRAY:3 TOP_ARRAY:59 0.299128
R3_28 TOP_ARRAY:4 TOP_ARRAY:27 8
R3_29 TOP_ARRAY:4 TOP_ARRAY:59 0.299128
R3_30 TOP_ARRAY:4 TOP_ARRAY:60 0.299128
R3_31 TOP_ARRAY:5 TOP_ARRAY:29 8
R3_32 TOP_ARRAY:5 TOP_ARRAY:60 0.299128
R3_33 TOP_ARRAY:5 TOP_ARRAY:61 0.299128
R3_34 TOP_ARRAY:6 TOP_ARRAY:31 8
R3_35 TOP_ARRAY:6 TOP_ARRAY:61 0.299128
R3_36 TOP_ARRAY:6 TOP_ARRAY:62 0.299128
R3_37 TOP_ARRAY:7 TOP_ARRAY:33 8
R3_38 TOP_ARRAY:7 TOP_ARRAY:62 0.299128
R3_39 TOP_ARRAY:7 TOP_ARRAY:63 0.299128
R3_40 TOP_ARRAY:8 TOP_ARRAY:35 8
R3_41 TOP_ARRAY:8 TOP_ARRAY:63 0.299128
R3_42 TOP_ARRAY:8 TOP_ARRAY:64 0.299128
R3_43 TOP_ARRAY:9 TOP_ARRAY:37 8
R3_44 TOP_ARRAY:9 TOP_ARRAY:64 0.299128
R3_45 TOP_ARRAY:9 TOP_ARRAY:65 0.299128
R3_46 TOP_ARRAY:10 TOP_ARRAY:39 8
R3_47 TOP_ARRAY:10 TOP_ARRAY:65 0.299128
R3_48 TOP_ARRAY:10 TOP_ARRAY:66 0.299128
R3_49 TOP_ARRAY:11 TOP_ARRAY:41 8
R3_50 TOP_ARRAY:11 TOP_ARRAY:66 0.299128
R3_51 TOP_ARRAY:11 TOP_ARRAY:67 0.299128
R3_52 TOP_ARRAY:12 TOP_ARRAY:43 8
R3_53 TOP_ARRAY:12 TOP_ARRAY:67 0.299128
R3_54 TOP_ARRAY:12 TOP_ARRAY:68 0.299128
R3_55 TOP_ARRAY:13 TOP_ARRAY:45 8
R3_56 TOP_ARRAY:13 TOP_ARRAY:68 0.299128
R3_57 TOP_ARRAY:13 TOP_ARRAY:69 0.299128
R3_58 TOP_ARRAY:14 TOP_ARRAY:47 8
R3_59 TOP_ARRAY:14 TOP_ARRAY:69 0.299128
R3_60 TOP_ARRAY:14 TOP_ARRAY:70 0.299128
R3_61 TOP_ARRAY:15 TOP_ARRAY:49 8
R3_62 TOP_ARRAY:15 TOP_ARRAY:70 0.299128
R3_63 TOP_ARRAY:15 TOP_ARRAY:71 0.299128
R3_64 TOP_ARRAY:16 TOP_ARRAY:51 8
R3_65 TOP_ARRAY:16 TOP_ARRAY:71 0.299128
R3_66 TOP_ARRAY:16 TOP_ARRAY:72 0.299128
R3_67 TOP_ARRAY TOP_ARRAY:55 24
R3_68 TOP_ARRAY:17 TOP_ARRAY:53 8
R3_69 TOP_ARRAY:17 TOP_ARRAY:72 0.299128
R3_70 TOP_ARRAY:17 TOP_ARRAY:73 0.299128
R3_71 TOP_ARRAY:18 TOP_ARRAY:54 8
R3_72 TOP_ARRAY:18 TOP_ARRAY:73 0.299128
R3_73 TOP_ARRAY:18 XI0/xC0:T1 7.17123
R3_74 TOP_ARRAY:19 TOP_ARRAY:20 5.09823
R3_75 TOP_ARRAY:19 TOP_ARRAY:21 0.598247
R3_76 TOP_ARRAY:19 TOP_ARRAY:56 8.29913
R3_77 TOP_ARRAY:20 TOP_ARRAY:21 4.5
R3_78 TOP_ARRAY:20 TOP_ARRAY:22 0.598227
R3_79 TOP_ARRAY:21 TOP_ARRAY:23 0.598247
R3_80 TOP_ARRAY:22 TOP_ARRAY:23 4.5
R3_81 TOP_ARRAY:22 TOP_ARRAY:24 0.598227
R3_82 TOP_ARRAY:23 TOP_ARRAY:25 0.598247
R3_83 XI37/xC0:T1 TOP_ARRAY:56 6.95374
R3_84 TOP_ARRAY:24 TOP_ARRAY:25 4.5
R3_85 TOP_ARRAY:24 TOP_ARRAY:26 0.598227
R3_86 TOP_ARRAY:25 TOP_ARRAY:27 0.598247
R3_87 TOP_ARRAY:26 TOP_ARRAY:27 4.5
R3_88 TOP_ARRAY:26 TOP_ARRAY:28 0.598227
R3_89 TOP_ARRAY:27 TOP_ARRAY:29 0.598247
R3_90 TOP_ARRAY:28 TOP_ARRAY:29 4.5
R3_91 TOP_ARRAY:28 TOP_ARRAY:30 0.598227
R3_92 TOP_ARRAY:29 TOP_ARRAY:31 0.598247
R3_93 TOP_ARRAY:30 TOP_ARRAY:31 4.5
R3_94 TOP_ARRAY:30 TOP_ARRAY:32 0.598227
R3_95 TOP_ARRAY:31 TOP_ARRAY:33 0.598247
R3_96 TOP_ARRAY:32 TOP_ARRAY:33 4.5
R3_97 TOP_ARRAY:32 TOP_ARRAY:34 0.598227
R3_98 TOP_ARRAY:33 TOP_ARRAY:35 0.598247
R3_99 XI35/xC0:T1 TOP_ARRAY:58 6.95374
R3_100 TOP_ARRAY:34 TOP_ARRAY:35 4.5
R3_101 TOP_ARRAY:34 TOP_ARRAY:36 0.598227
R3_102 TOP_ARRAY:35 TOP_ARRAY:37 0.598247
R3_103 TOP_ARRAY:36 TOP_ARRAY:37 4.5
R3_104 TOP_ARRAY:36 TOP_ARRAY:38 0.598227
R3_105 TOP_ARRAY:37 TOP_ARRAY:39 0.598247
R3_106 XI34/xC0:T1 TOP_ARRAY:57 6.95374
R3_107 TOP_ARRAY:38 TOP_ARRAY:39 4.5
R3_108 TOP_ARRAY:38 TOP_ARRAY:40 0.598227
R3_109 TOP_ARRAY:39 TOP_ARRAY:41 0.598247
R3_110 TOP_ARRAY:40 TOP_ARRAY:41 4.5
R3_111 TOP_ARRAY:40 TOP_ARRAY:42 0.598227
R3_112 TOP_ARRAY:41 TOP_ARRAY:43 0.598247
R3_113 TOP_ARRAY:42 TOP_ARRAY:43 4.5
R3_114 TOP_ARRAY:42 TOP_ARRAY:44 0.598227
R3_115 TOP_ARRAY:43 TOP_ARRAY:45 0.598247
R3_116 TOP_ARRAY:44 TOP_ARRAY:45 4.5
R3_117 TOP_ARRAY:44 TOP_ARRAY:46 0.598227
R3_118 TOP_ARRAY:45 TOP_ARRAY:47 0.598247
R3_119 XI36/xC0:T1 TOP_ARRAY:73 6.95374
R3_120 TOP_ARRAY:46 TOP_ARRAY:47 4.5
R3_121 TOP_ARRAY:46 TOP_ARRAY:48 0.598227
R3_122 TOP_ARRAY:47 TOP_ARRAY:49 0.598247
R3_123 TOP_ARRAY:48 TOP_ARRAY:49 4.5
R3_124 TOP_ARRAY:48 TOP_ARRAY:50 0.598227
R3_125 XI13/xC0:T1 TOP_ARRAY:72 6.95374
R3_126 TOP_ARRAY:49 TOP_ARRAY:51 0.598247
R3_127 TOP_ARRAY:50 TOP_ARRAY:51 4.5
R3_128 TOP_ARRAY:50 TOP_ARRAY:52 0.598227
R3_129 TOP_ARRAY:51 TOP_ARRAY:53 0.598247
R3_130 XI11/xC0:T1 TOP_ARRAY:71 6.95374
R3_131 TOP_ARRAY:52 TOP_ARRAY:53 4.5
R3_132 TOP_ARRAY:52 TOP_ARRAY:55 0.598227
R3_133 TOP_ARRAY:53 TOP_ARRAY:54 0.598247
R3_134 TOP_ARRAY:54 TOP_ARRAY:55 4.5
R3_135 XI4/xC0:T1 TOP_ARRAY:70 6.95374
R3_136 XI2/xC0:T1 TOP_ARRAY:69 6.95374
R3_137 XI14/xC0:T1 TOP_ARRAY:68 6.95374
R3_138 XI10/xC0:T1 TOP_ARRAY:67 6.95374
R3_139 XI5/xC0:T1 TOP_ARRAY:66 6.95374
R3_140 XI1/xC0:T1 TOP_ARRAY:65 6.95374
R3_141 XI9/xC0:T1 TOP_ARRAY:64 6.95374
R3_142 XI3/xC0:T1 TOP_ARRAY:63 6.95374
R3_143 XI12/xC0:T1 TOP_ARRAY:62 6.95374
R3_144 TOP_ARRAY:59 XI8/xC0:T1 6.95374
R3_145 TOP_ARRAY:60 XI7/xC0:T1 6.95374
R3_146 TOP_ARRAY:61 XI6/xC0:T1 6.95374

*
* Instance Section
*
XXI0/xC0 XI0/xC0:T1 VSS09A cfmom_2t lr=2.29417e-06 nr=3 s=5e-08 spm=6 stm=4 w=1.2e-06
XXI1/xC0 XI1/xC0:T1 XI1/xC0:T2 cfmom_2t lr=2.29417e-06 nr=3 s=5e-08 spm=6 stm=4 w=1.2e-06
XXI2/xC0 XI2/xC0:T1 XI2/xC0:T2 cfmom_2t lr=2.29417e-06 nr=3 s=5e-08 spm=6 stm=4 w=1.2e-06
XXI3/xC0 XI3/xC0:T1 XI3/xC0:T2 cfmom_2t lr=2.29417e-06 nr=3 s=5e-08 spm=6 stm=4 w=1.2e-06
XXI4/xC0 XI4/xC0:T1 XI4/xC0:T2 cfmom_2t lr=2.29417e-06 nr=3 s=5e-08 spm=6 stm=4 w=1.2e-06
XXI5/xC0 XI5/xC0:T1 XI5/xC0:T2 cfmom_2t lr=2.29417e-06 nr=3 s=5e-08 spm=6 stm=4 w=1.2e-06
XXI6/xC0 XI6/xC0:T1 XI6/xC0:T2 cfmom_2t lr=2.29417e-06 nr=3 s=5e-08 spm=6 stm=4 w=1.2e-06
XXI7/xC0 XI7/xC0:T1 XI7/xC0:T2 cfmom_2t lr=2.29417e-06 nr=3 s=5e-08 spm=6 stm=4 w=1.2e-06
XXI8/xC0 XI8/xC0:T1 XI8/xC0:T2 cfmom_2t lr=2.29417e-06 nr=3 s=5e-08 spm=6 stm=4 w=1.2e-06
XXI9/xC0 XI9/xC0:T1 XI9/xC0:T2 cfmom_2t lr=2.29417e-06 nr=3 s=5e-08 spm=6 stm=4 w=1.2e-06
XXI10/xC0 XI10/xC0:T1 XI10/xC0:T2 cfmom_2t lr=2.29417e-06 nr=3 s=5e-08 spm=6 stm=4 w=1.2e-06
XXI11/xC0 XI11/xC0:T1 XI11/xC0:T2 cfmom_2t lr=2.29417e-06 nr=3 s=5e-08 spm=6 stm=4 w=1.2e-06
XXI12/xC0 XI12/xC0:T1 XI12/xC0:T2 cfmom_2t lr=2.29417e-06 nr=3 s=5e-08 spm=6 stm=4 w=1.2e-06
XXI13/xC0 XI13/xC0:T1 XI13/xC0:T2 cfmom_2t lr=2.29417e-06 nr=3 s=5e-08 spm=6 stm=4 w=1.2e-06
XXI14/xC0 XI14/xC0:T1 XI14/xC0:T2 cfmom_2t lr=2.29417e-06 nr=3 s=5e-08 spm=6 stm=4 w=1.2e-06
XXI34/xC0 XI34/xC0:T1 VSS09A cfmom_2t lr=2.29417e-06 nr=3 s=5e-08 spm=6 stm=4 w=1.2e-06
XXI35/xC0 XI35/xC0:T1 VSS09A cfmom_2t lr=2.29417e-06 nr=3 s=5e-08 spm=6 stm=4 w=1.2e-06
XXI36/xC0 XI36/xC0:T1 VSS09A cfmom_2t lr=2.29417e-06 nr=3 s=5e-08 spm=6 stm=4 w=1.2e-06
XXI37/xC0 XI37/xC0:T1 VSS09A cfmom_2t lr=2.29417e-06 nr=3 s=5e-08 spm=6 stm=4 w=1.2e-06

.ENDS

