*
*|DSPF 1.3
*|DESIGN ARRAY_CMP_T1
*|DATE "Tue Apr 27 18:01:05 2021"
*|VENDOR "Synopsys"
*|PROGRAM "StarRC"
*|VERSION "K-2015.06-SP1"
*|DIVIDER /
*|DELIMITER :
**FORMAT CONLY
*

** COMMENTS

** OPERATING_TEMPERATURE 25
** GLOBAL_TEMPERATURE 25
** TCAD_GRD_FILE /raidj/user/t28/t28u25/etron/ADC_SAR4BIT/runLPE/cln28hpc+_1p09m+ut-alrdl_6x2z_typical.nxtgrd
**   TCAD_TIME_STAMP Thu Jun 25 12:48:01 2015
**   TCADGRD_VERSION 80
** HALF_NODE_SCALE_FACTOR 0.9


.SUBCKT ARRAY_CMP_T1 SL1A SL1B SL2A SL2B SL3A SL3B TOP_ARRAY VDD09A VSS09A

*|GROUND_NET 0

*|NET TOP_ARRAY 0.0118135PF
Cg1_1 TOP_ARRAY 0 5.8212e-16

*|NET SL3B 0.00439321PF
C2_2 SL3B TOP_ARRAY 3.20324e-15
Cg2_3 SL3B 0 3.50456e-16

*|NET SL2B 0.00253881PF
C3_4 SL2B SL3B 7.75934e-17
C3_5 SL2B TOP_ARRAY 1.60162e-15
Cg3_6 SL2B 0 1.32553e-16

*|NET SL1B 0.00124443PF
C4_7 SL1B SL2B 2.14953e-16
C4_8 SL1B TOP_ARRAY 8.00811e-16
Cg4_9 SL1B 0 6.47323e-17

*|NET SL3A 0.00407668PF
C5_10 SL3A SL3B 4.04834e-16
C5_11 SL3A TOP_ARRAY 3.22327e-15
Cg5_12 SL3A 0 4.48574e-16

*|NET SL2A 0.0025251PF
C6_13 SL2A SL2B 3.44214e-16
C6_14 SL2A SL3B 3.57081e-16
C6_15 SL2A TOP_ARRAY 1.60154e-15
Cg6_16 SL2A 0 2.22262e-16

*|NET SL1A 0.00121142PF
C7_17 SL1A SL1B 1.63933e-16
C7_18 SL1A SL2B 1.67872e-16
C7_19 SL1A TOP_ARRAY 8.0087e-16
Cg7_20 SL1A 0 7.8747e-17

*
* Instance Section
*
XXI1/xC0 TOP_ARRAY SL3B cfmom_2t lr=2.29417e-06 nr=3 s=5e-08 spm=6 stm=4 w=1.2e-06
XXI2/xC0 TOP_ARRAY SL3A cfmom_2t lr=2.29417e-06 nr=3 s=5e-08 spm=6 stm=4 w=1.2e-06
XXI3/xC0 TOP_ARRAY SL2A cfmom_2t lr=2.29417e-06 nr=3 s=5e-08 spm=6 stm=4 w=1.2e-06
XXI4/xC0 TOP_ARRAY SL3A cfmom_2t lr=2.29417e-06 nr=3 s=5e-08 spm=6 stm=4 w=1.2e-06
XXI5/xC0 TOP_ARRAY SL3B cfmom_2t lr=2.29417e-06 nr=3 s=5e-08 spm=6 stm=4 w=1.2e-06
XXI6/xC0 TOP_ARRAY SL2B cfmom_2t lr=2.29417e-06 nr=3 s=5e-08 spm=6 stm=4 w=1.2e-06
XXI7/xC0 TOP_ARRAY SL1A cfmom_2t lr=2.29417e-06 nr=3 s=5e-08 spm=6 stm=4 w=1.2e-06
XXI8/xC0 TOP_ARRAY SL1B cfmom_2t lr=2.29417e-06 nr=3 s=5e-08 spm=6 stm=4 w=1.2e-06
XXI9/xC0 TOP_ARRAY SL2A cfmom_2t lr=2.29417e-06 nr=3 s=5e-08 spm=6 stm=4 w=1.2e-06
XXI10/xC0 TOP_ARRAY SL3B cfmom_2t lr=2.29417e-06 nr=3 s=5e-08 spm=6 stm=4 w=1.2e-06
XXI11/xC0 TOP_ARRAY SL3A cfmom_2t lr=2.29417e-06 nr=3 s=5e-08 spm=6 stm=4 w=1.2e-06
XXI12/xC0 TOP_ARRAY SL2B cfmom_2t lr=2.29417e-06 nr=3 s=5e-08 spm=6 stm=4 w=1.2e-06
XXI13/xC0 TOP_ARRAY SL3A cfmom_2t lr=2.29417e-06 nr=3 s=5e-08 spm=6 stm=4 w=1.2e-06
XXI14/xC0 TOP_ARRAY SL3B cfmom_2t lr=2.29417e-06 nr=3 s=5e-08 spm=6 stm=4 w=1.2e-06

.ENDS

