*
*|DSPF 1.3
*|DESIGN ARRAY_CMP
*|DATE "Fri Nov 20 10:12:29 2020"
*|VENDOR "Synopsys"
*|PROGRAM "StarRC"
*|VERSION "K-2015.06-SP1"
*|DIVIDER /
*|DELIMITER :
**FORMAT SPF
*

** COMMENTS

** OPERATING_TEMPERATURE 25
** GLOBAL_TEMPERATURE 25
** TCAD_GRD_FILE /raidj/user/t28/t28u25/etron/ADC_SAR4BIT/runLPE/cln28hpc+_1p09m+ut-alrdl_6x2z_typical.nxtgrd
**   TCAD_TIME_STAMP Thu Jun 25 12:48:01 2015
**   TCADGRD_VERSION 80
** HALF_NODE_SCALE_FACTOR 0.9


.SUBCKT ARRAY_CMP SL3A SL3B SL2A SL2B SL1A SL1B TOP_ARRAY

*|GROUND_NET 0

*|NET TOP_ARRAY 0.0193716PF
*|P (TOP_ARRAY O 0 -3.04689 2.35989)
*|I (XI0/xC0:T1 XI0/xC0 T1 B 0 -1.68489 1.15989)
*|I (XI34/xC0:T1 XI34/xC0 T1 B 0 -1.05489 1.15989)
*|I (XI11/xC0:T1 XI11/xC0 T1 B 0 -0.424889 1.15989)
*|I (XI7/xC0:T1 XI7/xC0 T1 B 0 0.204889 1.15989)
*|I (XI12/xC0:T1 XI12/xC0 T1 B 0 0.834889 1.15989)
*|I (XI6/xC0:T1 XI6/xC0 T1 B 0 1.46489 1.15989)
*|I (XI9/xC0:T1 XI9/xC0 T1 B 0 2.09489 1.15989)
*|I (XI3/xC0:T1 XI3/xC0 T1 B 0 2.72489 1.15989)
*|I (XI10/xC0:T1 XI10/xC0 T1 B 0 3.35489 1.15989)
*|I (XI5/xC0:T1 XI5/xC0 T1 B 0 3.98489 1.15989)
*|I (XI14/xC0:T1 XI14/xC0 T1 B 0 4.61489 1.15989)
*|I (XI1/xC0:T1 XI1/xC0 T1 B 0 5.24489 1.15989)
*|I (XI2/xC0:T1 XI2/xC0 T1 B 0 5.87489 1.15989)
*|I (XI8/xC0:T1 XI8/xC0 T1 B 0 6.50489 1.15989)
*|I (XI13/xC0:T1 XI13/xC0 T1 B 0 7.13489 1.15989)
*|I (XI4/xC0:T1 XI4/xC0 T1 B 0 7.76489 1.15989)
*|I (XI35/xC0:T1 XI35/xC0 T1 B 0 8.39489 1.15989)
*|I (XI36/xC0:T1 XI36/xC0 T1 B 0 9.02489 1.15989)
*|I (XI37/xC0:T1 XI37/xC0 T1 B 0 9.65489 1.15989)
Cg8_1 TOP_ARRAY 0 8.61181e-16
Cg8_2 XI0/xC0:T1 0 8.04055e-16
Cg8_3 XI34/xC0:T1 0 7.18098e-16
Cg8_4 XI11/xC0:T1 0 1.23385e-17
Cg8_5 XI7/xC0:T1 0 1.27684e-17
Cg8_6 XI12/xC0:T1 0 1.28175e-17
Cg8_7 XI6/xC0:T1 0 1.28175e-17
Cg8_8 XI9/xC0:T1 0 1.28703e-17
Cg8_9 XI3/xC0:T1 0 1.28703e-17
Cg8_10 XI10/xC0:T1 0 1.2924e-17
Cg8_11 XI5/xC0:T1 0 1.2924e-17
Cg8_12 XI14/xC0:T1 0 1.2924e-17
Cg8_13 XI1/xC0:T1 0 1.2924e-17
Cg8_14 XI2/xC0:T1 0 1.29543e-17
Cg8_15 XI8/xC0:T1 0 1.27568e-17
Cg8_16 XI13/xC0:T1 0 1.29543e-17
Cg8_17 XI4/xC0:T1 0 1.23395e-17
Cg8_18 XI35/xC0:T1 0 7.18114e-16
Cg8_19 XI36/xC0:T1 0 7.20544e-16
Cg8_20 XI37/xC0:T1 0 8.19901e-16
Cg8_21 TOP_ARRAY:1 0 4.80637e-16
Cg8_22 TOP_ARRAY:2 0 2.33379e-16
Cg8_23 TOP_ARRAY:3 0 1.05259e-16
Cg8_24 TOP_ARRAY:4 0 9.94238e-17
Cg8_25 TOP_ARRAY:5 0 9.95044e-17
Cg8_26 TOP_ARRAY:6 0 9.9431e-17
Cg8_27 TOP_ARRAY:7 0 9.94397e-17
Cg8_28 TOP_ARRAY:8 0 9.94397e-17
Cg8_29 TOP_ARRAY:9 0 9.94397e-17
Cg8_30 TOP_ARRAY:10 0 9.94397e-17
Cg8_31 TOP_ARRAY:11 0 9.94678e-17
Cg8_32 TOP_ARRAY:12 0 9.94678e-17
Cg8_33 TOP_ARRAY:13 0 9.94955e-17
Cg8_34 TOP_ARRAY:14 0 9.94955e-17
Cg8_35 TOP_ARRAY:15 0 9.95008e-17
Cg8_36 TOP_ARRAY:16 0 1.04709e-16
Cg8_37 TOP_ARRAY:17 0 2.33368e-16
Cg8_38 TOP_ARRAY:18 0 2.61873e-16
R8_1 TOP_ARRAY TOP_ARRAY:18 5.86548
R8_2 XI0/xC0:T1 TOP_ARRAY:18 41.1118
R8_3 XI34/xC0:T1 TOP_ARRAY:17 41.1081
R8_4 XI11/xC0:T1 TOP_ARRAY:16 41.1081
R8_5 XI7/xC0:T1 TOP_ARRAY:15 41.1081
R8_6 XI12/xC0:T1 TOP_ARRAY:14 41.1081
R8_7 XI6/xC0:T1 TOP_ARRAY:13 41.1081
R8_8 XI9/xC0:T1 TOP_ARRAY:12 41.1081
R8_9 XI3/xC0:T1 TOP_ARRAY:11 41.1081
R8_10 XI10/xC0:T1 TOP_ARRAY:10 41.1081
R8_11 XI5/xC0:T1 TOP_ARRAY:9 41.1081
R8_12 XI14/xC0:T1 TOP_ARRAY:8 41.1081
R8_13 XI1/xC0:T1 TOP_ARRAY:7 41.1081
R8_14 XI2/xC0:T1 TOP_ARRAY:6 41.1081
R8_15 XI8/xC0:T1 TOP_ARRAY:5 41.1081
R8_16 XI13/xC0:T1 TOP_ARRAY:4 41.1081
R8_17 XI4/xC0:T1 TOP_ARRAY:3 41.1081
R8_18 XI35/xC0:T1 TOP_ARRAY:2 41.1081
R8_19 XI36/xC0:T1 TOP_ARRAY:1 41.1081
R8_20 XI37/xC0:T1 TOP_ARRAY:1 43.6393
R8_21 TOP_ARRAY:1 TOP_ARRAY:2 2.52753
R8_22 TOP_ARRAY:2 TOP_ARRAY:3 2.52753
R8_23 TOP_ARRAY:3 TOP_ARRAY:4 2.52753
R8_24 TOP_ARRAY:4 TOP_ARRAY:5 2.52753
R8_25 TOP_ARRAY:5 TOP_ARRAY:6 2.52753
R8_26 TOP_ARRAY:6 TOP_ARRAY:7 2.52753
R8_27 TOP_ARRAY:7 TOP_ARRAY:8 2.52753
R8_28 TOP_ARRAY:8 TOP_ARRAY:9 2.52753
R8_29 TOP_ARRAY:9 TOP_ARRAY:10 2.52753
R8_30 TOP_ARRAY:10 TOP_ARRAY:11 2.52753
R8_31 TOP_ARRAY:11 TOP_ARRAY:12 2.52753
R8_32 TOP_ARRAY:12 TOP_ARRAY:13 2.52753
R8_33 TOP_ARRAY:13 TOP_ARRAY:14 2.52753
R8_34 TOP_ARRAY:14 TOP_ARRAY:15 2.52753
R8_35 TOP_ARRAY:15 TOP_ARRAY:16 2.52664
R8_36 TOP_ARRAY:16 TOP_ARRAY:17 2.52753
R8_37 TOP_ARRAY:17 TOP_ARRAY:18 2.52753

*|NET SL3B 0.00348545PF
*|P (SL3B O 0 -3.04989 0.954889)
*|I (MM25:GATE MM25 GATE I 0 3.38989 0.534889)
*|I (MM20:GATE MM20 GATE I 0 4.01989 0.534889)
*|I (MM29:GATE MM29 GATE I 0 4.64989 0.534889)
*|I (MM16:GATE MM16 GATE I 0 5.27989 0.534889)
*|I (MM10:GATE MM10 GATE I 0 3.38989 0.109889)
*|I (MM5:GATE MM5 GATE I 0 4.01989 0.109889)
*|I (MM14:GATE MM14 GATE I 0 4.64989 0.109889)
*|I (MM1:GATE MM1 GATE I 0 5.27989 0.109889)
Cg3_39 SL3B 0 3.19189e-16
Cg3_40 MM25:GATE 0 5.18263e-17
Cg3_41 MM20:GATE 0 5.05632e-17
Cg3_42 MM29:GATE 0 5.05632e-17
Cg3_43 MM16:GATE 0 5.0313e-17
Cg3_44 MM10:GATE 0 3.15352e-17
Cg3_45 MM5:GATE 0 3.11788e-17
Cg3_46 MM14:GATE 0 3.11788e-17
Cg3_47 MM1:GATE 0 3.13466e-17
Cg3_48 SL3B:1 0 1.06199e-17
Cg3_49 SL3B:2 0 5.30723e-18
Cg3_50 SL3B:3 0 5.3668e-18
R3_38 SL3B SL3B:3 58.4348
R3_39 MM25:GATE SL3B:3 809.554
R3_40 MM25:GATE MM10:GATE 910.485
R3_41 MM20:GATE MM5:GATE 910.485
R3_42 MM20:GATE SL3B:2 809.554
R3_43 MM29:GATE MM14:GATE 910.485
R3_44 MM29:GATE SL3B:1 809.554
R3_45 MM16:GATE MM1:GATE 910.485
R3_46 MM16:GATE SL3B:1 815.27
R3_47 SL3B:1 SL3B:2 5.71664
R3_48 SL3B:2 SL3B:3 5.71664

*|NET SL3A 0.00340225PF
*|P (SL3A O 0 -3.04989 0.854889)
*|I (MM26:GATE MM26 GATE I 0 -0.389889 0.534889)
*|I (MM17:GATE MM17 GATE I 0 5.90989 0.534889)
*|I (MM28:GATE MM28 GATE I 0 7.16989 0.534889)
*|I (MM19:GATE MM19 GATE I 0 7.79989 0.534889)
*|I (MM11:GATE MM11 GATE I 0 -0.389889 0.109889)
*|I (MM2:GATE MM2 GATE I 0 5.90989 0.109889)
*|I (MM13:GATE MM13 GATE I 0 7.16989 0.109889)
*|I (MM4:GATE MM4 GATE I 0 7.79989 0.109889)
C2_51 SL3A SL3B 1.20918e-15
C2_52 SL3A MM16:GATE 5.47042e-18
C2_53 SL3A MM29:GATE 5.47042e-18
C2_54 SL3A MM20:GATE 5.47042e-18
C2_55 SL3A MM25:GATE 5.47042e-18
Cg2_56 SL3A 0 1.47981e-15
C2_57 MM26:GATE SL3B 2.63336e-18
Cg2_58 MM26:GATE 0 4.99933e-17
C2_59 MM17:GATE SL3B 2.5905e-18
C2_60 MM17:GATE MM16:GATE 1.21999e-18
Cg2_61 MM17:GATE 0 4.81638e-17
C2_62 MM28:GATE SL3B 2.5905e-18
Cg2_63 MM28:GATE 0 4.8395e-17
C2_64 MM19:GATE SL3B 2.63336e-18
Cg2_65 MM19:GATE 0 4.66809e-17
Cg2_66 MM11:GATE 0 3.22576e-17
C2_67 MM2:GATE MM1:GATE 1.3631e-19
Cg2_68 MM2:GATE 0 3.18298e-17
Cg2_69 MM13:GATE 0 3.16621e-17
Cg2_70 MM4:GATE 0 3.1479e-17
Cg2_71 SL3A:1 0 1.08295e-17
Cg2_72 SL3A:2 0 5.50634e-18
Cg2_73 SL3A:3 0 5.53163e-18
R2_49 SL3A SL3A:3 24.1369
R2_50 MM26:GATE MM11:GATE 910.485
R2_51 MM26:GATE SL3A:3 640.612
R2_52 MM17:GATE MM2:GATE 910.485
R2_53 MM17:GATE SL3A:2 640.612
R2_54 MM28:GATE MM13:GATE 910.485
R2_55 MM28:GATE SL3A:1 640.612
R2_56 MM19:GATE MM4:GATE 910.485
R2_57 MM19:GATE SL3A:1 646.329
R2_58 SL3A:1 SL3A:2 11.4333
R2_59 SL3A:2 SL3A:3 57.1644

*|NET SL2B 0.00322141PF
*|P (SL2B O 0 -3.04989 1.15489)
*|I (MM27:GATE MM27 GATE I 0 0.869889 0.534889)
*|I (MM21:GATE MM21 GATE I 0 1.49989 0.534889)
*|I (MM12:GATE MM12 GATE I 0 0.869889 0.109889)
*|I (MM6:GATE MM6 GATE I 0 1.49989 0.109889)
C5_74 SL2B SL3B 1.15887e-16
C5_75 SL2B MM16:GATE 2.60515e-19
C5_76 SL2B MM29:GATE 2.60515e-19
C5_77 SL2B MM20:GATE 2.60515e-19
C5_78 SL2B MM25:GATE 2.60515e-19
Cg5_79 SL2B 0 2.10655e-16
C5_80 MM27:GATE SL3B 5.46139e-18
Cg5_81 MM27:GATE 0 6.61855e-17
C5_82 MM21:GATE SL3B 5.46139e-18
Cg5_83 MM21:GATE 0 6.47548e-17
Cg5_84 MM12:GATE 0 3.15352e-17
Cg5_85 MM6:GATE 0 3.13466e-17
Cg5_86 SL2B:1 0 1.04695e-17
R5_60 SL2B SL2B:1 35.5682
R5_61 MM27:GATE SL2B:1 1147.44
R5_62 MM27:GATE MM12:GATE 910.485
R5_63 MM21:GATE SL2B:1 1153.15
R5_64 MM21:GATE MM6:GATE 910.485

*|NET SL2A 0.00319923PF
*|P (SL2A O 0 -3.04989 1.05489)
*|I (MM24:GATE MM24 GATE I 0 2.12989 0.534889)
*|I (MM18:GATE MM18 GATE I 0 2.75989 0.534889)
*|I (MM9:GATE MM9 GATE I 0 2.12989 0.109889)
*|I (MM3:GATE MM3 GATE I 0 2.75989 0.109889)
C4_87 SL2A SL3B 1.20628e-15
C4_88 SL2A SL3A 1.10607e-16
C4_89 SL2A SL2B 1.20609e-15
C4_90 SL2A MM21:GATE 5.46139e-18
C4_91 SL2A MM27:GATE 5.46139e-18
C4_92 SL2A MM26:GATE 2.60515e-19
C4_93 SL2A MM19:GATE 2.60515e-19
C4_94 SL2A MM28:GATE 2.60515e-19
C4_95 SL2A MM17:GATE 2.60515e-19
C4_96 SL2A MM16:GATE 2.61931e-18
C4_97 SL2A MM29:GATE 2.61227e-18
C4_98 SL2A MM20:GATE 2.61227e-18
C4_99 SL2A MM25:GATE 2.61227e-18
Cg4_100 SL2A 0 2.08545e-16
C4_101 MM24:GATE SL3B 5.46139e-18
C4_102 MM24:GATE SL3A 5.47042e-18
C4_103 MM24:GATE SL2B 2.61227e-18
C4_104 MM24:GATE MM21:GATE 1.39884e-18
Cg4_105 MM24:GATE 0 5.63645e-17
C4_106 MM18:GATE SL3B 5.46139e-18
C4_107 MM18:GATE SL3A 5.47042e-18
C4_108 MM18:GATE SL2B 2.58266e-18
C4_109 MM18:GATE MM25:GATE 1.30942e-18
Cg4_110 MM18:GATE 0 5.47354e-17
C4_111 MM9:GATE MM6:GATE 1.3631e-19
Cg4_112 MM9:GATE 0 3.15352e-17
C4_113 MM3:GATE MM10:GATE 1.3631e-19
Cg4_114 MM3:GATE 0 3.13466e-17
Cg4_115 SL2A:1 0 1.05539e-17
R4_65 SL2A SL2A:1 47.0015
R4_66 MM24:GATE SL2A:1 978.495
R4_67 MM24:GATE MM9:GATE 910.485
R4_68 MM18:GATE SL2A:1 984.212
R4_69 MM18:GATE MM3:GATE 910.485

*|NET SL1B 0.00223615PF
*|P (SL1B O 0 -3.04989 1.35489)
*|I (MM23:GATE MM23 GATE I 0 6.53989 0.534889)
*|I (MM8:GATE MM8 GATE I 0 6.53989 0.109889)
C7_116 SL1B XI9/xC0:T1 4.28246e-18
C7_117 SL1B MM21:GATE 2.7453e-19
C7_118 SL1B XI6/xC0:T1 4.28246e-18
C7_119 SL1B MM27:GATE 2.7453e-19
C7_120 SL1B XI12/xC0:T1 4.28246e-18
C7_121 SL1B XI7/xC0:T1 4.28084e-18
C7_122 SL1B TOP_ARRAY:18 1.00332e-18
C7_123 SL1B TOP_ARRAY:17 1.00332e-18
C7_124 SL1B TOP_ARRAY:16 1.00332e-18
C7_125 SL1B XI11/xC0:T1 4.32317e-18
C7_126 SL1B TOP_ARRAY:15 9.89613e-19
C7_127 SL1B TOP_ARRAY:14 9.9142e-19
C7_128 SL1B XI37/xC0:T1 4.29953e-18
C7_129 SL1B TOP_ARRAY:13 9.9142e-19
C7_130 SL1B TOP_ARRAY:12 9.9142e-19
C7_131 SL1B TOP_ARRAY:11 9.9142e-19
C7_132 SL1B TOP_ARRAY:10 1.00332e-18
C7_133 SL1B TOP_ARRAY:9 1.00332e-18
C7_134 SL1B XI34/xC0:T1 4.3033e-18
C7_135 SL1B TOP_ARRAY:8 1.00332e-18
C7_136 SL1B XI36/xC0:T1 4.3033e-18
C7_137 SL1B TOP_ARRAY:7 1.00332e-18
C7_138 SL1B TOP_ARRAY:6 1.00332e-18
C7_139 SL1B TOP_ARRAY:5 9.77708e-19
C7_140 SL1B TOP_ARRAY:4 1.00332e-18
C7_141 SL1B TOP_ARRAY:3 1.00332e-18
C7_142 SL1B XI0/xC0:T1 4.3033e-18
C7_143 SL1B TOP_ARRAY:2 1.00332e-18
C7_144 SL1B XI35/xC0:T1 4.3033e-18
C7_145 SL1B TOP_ARRAY:1 2.00664e-18
C7_146 SL1B XI4/xC0:T1 4.32343e-18
C7_147 SL1B XI13/xC0:T1 4.32343e-18
C7_148 SL1B TOP_ARRAY 5.13546e-17
C7_149 SL1B SL2B 1.22854e-16
C7_150 SL1B XI8/xC0:T1 4.27328e-18
C7_151 SL1B XI2/xC0:T1 4.32343e-18
C7_152 SL1B XI1/xC0:T1 4.32343e-18
C7_153 SL1B XI14/xC0:T1 4.32343e-18
C7_154 SL1B XI5/xC0:T1 4.32343e-18
C7_155 SL1B XI10/xC0:T1 4.32343e-18
C7_156 SL1B XI3/xC0:T1 4.28246e-18
Cg7_157 SL1B 0 4.92632e-16
C7_158 MM23:GATE TOP_ARRAY 6.75554e-21
C7_159 MM23:GATE SL2B 5.36128e-18
C7_160 MM23:GATE TOP_ARRAY:6 1.44922e-20
C7_161 MM23:GATE TOP_ARRAY:5 9.63081e-20
Cg7_162 MM23:GATE 0 8.93346e-17
Cg7_163 MM8:GATE 0 3.19756e-17
R7_70 SL1B MM23:GATE 1526.81
R7_71 MM23:GATE MM8:GATE 910.485

*|NET SL1A 0.00302127PF
*|P (SL1A O 0 -3.04989 1.25489)
*|I (MM22:GATE MM22 GATE I 0 0.239889 0.534889)
*|I (MM7:GATE MM7 GATE I 0 0.239889 0.109889)
C6_164 SL1A MM24:GATE 2.60515e-19
C6_165 SL1A MM21:GATE 2.59731e-18
C6_166 SL1A MM27:GATE 2.61227e-18
C6_167 SL1A SL2B 1.20637e-15
C6_168 SL1A SL2A 1.17291e-16
C6_169 SL1A SL1B 1.28046e-15
C6_170 SL1A MM23:GATE 5.37593e-18
C6_171 SL1A MM18:GATE 2.60515e-19
Cg6_172 SL1A 0 2.28425e-16
C6_173 MM22:GATE SL2B 5.41866e-18
C6_174 MM22:GATE SL2A 5.41866e-18
C6_175 MM22:GATE SL1B 2.58944e-18
C6_176 MM22:GATE MM27:GATE 1.48826e-18
Cg6_177 MM22:GATE 0 7.77328e-17
C6_178 MM7:GATE MM12:GATE 1.3631e-19
Cg6_179 MM7:GATE 0 3.18565e-17
R6_72 SL1A MM22:GATE 1346.23
R6_73 MM22:GATE MM7:GATE 910.485

*|NET net056 0.0011098PF
*|I (MM26:DRN MM26 DRN B 0 -0.372444 0.534889)
*|I (MM11:DRN MM11 DRN B 0 -0.372444 0.109889)
*|I (XI11/xC0:T2 XI11/xC0 T2 B 0 -0.324889 0.834889)
C11_180 MM26:DRN SL3A 2.1693e-19
C11_181 MM26:DRN MM26:GATE 1.96108e-17
Cg11_182 MM26:DRN 0 2.74267e-18
C11_183 MM11:DRN MM26:GATE 4.31178e-18
C11_184 MM11:DRN MM11:GATE 1.11698e-17
Cg11_185 MM11:DRN 0 2.8318e-18
C11_186 XI11/xC0:T2 XI34/xC0:T1 2.59017e-18
C11_187 XI11/xC0:T2 SL3A 3.36605e-19
C11_188 XI11/xC0:T2 TOP_ARRAY:16 1.27478e-16
C11_189 XI11/xC0:T2 XI7/xC0:T1 2.76522e-18
C11_190 XI11/xC0:T2 XI11/xC0:T1 4.95981e-16
Cg11_191 XI11/xC0:T2 0 4.18388e-18
C11_192 net056:7 SL3A 4.78099e-19
C11_193 net056:7 MM26:GATE 1.48216e-17
C11_194 net056:7 MM11:GATE 1.96839e-18
C11_195 net056:7 XI7/xC0:T1 2.83002e-19
C11_196 net056:7 XI11/xC0:T1 2.10646e-16
Cg11_197 net056:7 0 1.71739e-16
R11_74 net056:1 net056:2 112.902
R11_75 net056:1 net056:3 112.902
R11_76 net056:1 net056:8 11.25
R11_77 net056:2 MM11:DRN 43.9
R11_78 net056:2 net056:8 31.0583
R11_79 net056:3 MM11:DRN 43.9
R11_80 net056:3 net056:8 31.0583
R11_81 net056:4 net056:5 92.8303
R11_82 net056:4 net056:6 92.8303
R11_83 net056:4 net056:9 9.24999
R11_84 net056:5 MM26:DRN 36.0955
R11_85 net056:5 net056:9 25.5368
R11_86 net056:6 MM26:DRN 36.0955
R11_87 net056:6 net056:9 25.5368
R11_88 MM26:DRN net056:9 18.0478
R11_89 MM11:DRN net056:8 21.95
R11_90 XI11/xC0:T2 net056:7 46.4219
R11_91 net056:7 net056:8 90
R11_92 net056:7 net056:9 81.6915

*|NET net43 0.00110759PF
*|I (MM22:DRN MM22 DRN B 0 0.257444 0.534889)
*|I (MM7:DRN MM7 DRN B 0 0.257444 0.109889)
*|I (XI7/xC0:T2 XI7/xC0 T2 B 0 0.304889 0.834889)
C12_198 MM22:DRN MM26:DRN 4.73426e-21
C12_199 MM22:DRN MM22:GATE 1.96108e-17
Cg12_200 MM22:DRN 0 2.95447e-18
C12_201 MM7:DRN MM11:DRN 8.71437e-21
C12_202 MM7:DRN MM22:GATE 4.31178e-18
C12_203 MM7:DRN MM7:GATE 1.11698e-17
Cg12_204 MM7:DRN 0 2.8225e-18
C12_205 XI7/xC0:T2 SL1A 9.26635e-19
C12_206 XI7/xC0:T2 TOP_ARRAY:16 1.02369e-18
C12_207 XI7/xC0:T2 TOP_ARRAY:15 1.32778e-16
C12_208 XI7/xC0:T2 XI12/xC0:T1 2.76403e-18
C12_209 XI7/xC0:T2 net056:7 2.75297e-19
C12_210 XI7/xC0:T2 XI7/xC0:T1 4.97096e-16
Cg12_211 XI7/xC0:T2 0 3.98187e-18
C12_212 net43:7 MM22:GATE 1.49938e-17
C12_213 net43:7 MM7:GATE 1.96837e-18
C12_214 net43:7 XI12/xC0:T1 2.82909e-19
C12_215 net43:7 net056:7 2.08589e-18
C12_216 net43:7 XI7/xC0:T1 2.06219e-16
C12_217 net43:7 XI11/xC0:T2 3.32711e-17
C12_218 net43:7 XI11/xC0:T1 2.01299e-18
Cg12_219 net43:7 0 1.3174e-16
R12_93 net43:1 net43:2 112.902
R12_94 net43:1 net43:3 112.902
R12_95 net43:1 net43:8 11.25
R12_96 net43:2 MM7:DRN 43.8
R12_97 net43:2 net43:8 31.0583
R12_98 net43:3 MM7:DRN 43.8
R12_99 net43:3 net43:8 31.0583
R12_100 net43:4 net43:5 92.8303
R12_101 net43:4 net43:6 92.8303
R12_102 net43:4 net43:9 9.24999
R12_103 net43:5 MM22:DRN 36.0133
R12_104 net43:5 net43:9 25.5368
R12_105 net43:6 MM22:DRN 36.0133
R12_106 net43:6 net43:9 25.5368
R12_107 MM22:DRN net43:9 18.0067
R12_108 MM7:DRN net43:8 21.9
R12_109 XI7/xC0:T2 net43:7 46.4219
R12_110 net43:7 net43:8 90
R12_111 net43:7 net43:9 81.6881

*|NET net060 0.00110723PF
*|I (MM27:DRN MM27 DRN B 0 0.887444 0.534889)
*|I (MM12:DRN MM12 DRN B 0 0.887444 0.109889)
*|I (XI12/xC0:T2 XI12/xC0 T2 B 0 0.934889 0.834889)
C13_220 MM27:DRN MM22:DRN 4.72404e-21
C13_221 MM27:DRN MM27:GATE 1.96108e-17
Cg13_222 MM27:DRN 0 2.95447e-18
C13_223 MM12:DRN MM7:DRN 8.70551e-21
C13_224 MM12:DRN MM27:GATE 4.31178e-18
C13_225 MM12:DRN MM12:GATE 1.11698e-17
Cg13_226 MM12:DRN 0 2.8225e-18
C13_227 XI12/xC0:T2 SL2B 8.48556e-19
C13_228 XI12/xC0:T2 TOP_ARRAY:15 1.02315e-18
C13_229 XI12/xC0:T2 TOP_ARRAY:14 1.32799e-16
C13_230 XI12/xC0:T2 XI6/xC0:T1 2.76403e-18
C13_231 XI12/xC0:T2 XI12/xC0:T1 4.97216e-16
Cg13_232 XI12/xC0:T2 0 4.05995e-18
C13_233 net060:7 MM21:GATE 1.49051e-18
C13_234 net060:7 MM27:GATE 1.49938e-17
C13_235 net060:7 MM6:GATE 1.8863e-19
C13_236 net060:7 XI6/xC0:T1 2.82909e-19
C13_237 net060:7 MM12:GATE 1.96837e-18
C13_238 net060:7 XI12/xC0:T1 2.06079e-16
C13_239 net060:7 XI7/xC0:T2 2.6626e-17
C13_240 net060:7 XI7/xC0:T1 2.01225e-18
C13_241 net060:7 net43:7 8.64753e-18
Cg13_242 net060:7 0 1.30064e-16
R13_112 net060:1 net060:2 112.902
R13_113 net060:1 net060:3 112.902
R13_114 net060:1 net060:8 11.25
R13_115 net060:2 MM12:DRN 43.8
R13_116 net060:2 net060:8 31.0583
R13_117 net060:3 MM12:DRN 43.8
R13_118 net060:3 net060:8 31.0583
R13_119 net060:4 net060:5 92.8303
R13_120 net060:4 net060:6 92.8303
R13_121 net060:4 net060:9 9.24999
R13_122 net060:5 MM27:DRN 36.0133
R13_123 net060:5 net060:9 25.5368
R13_124 net060:6 MM27:DRN 36.0133
R13_125 net060:6 net060:9 25.5368
R13_126 MM27:DRN net060:9 18.0067
R13_127 MM12:DRN net060:8 21.9
R13_128 XI12/xC0:T2 net060:7 46.4219
R13_129 net060:7 net060:8 90
R13_130 net060:7 net060:9 81.6881

*|NET net39 0.00110723PF
*|I (MM21:DRN MM21 DRN B 0 1.51744 0.534889)
*|I (MM6:DRN MM6 DRN B 0 1.51744 0.109889)
*|I (XI6/xC0:T2 XI6/xC0 T2 B 0 1.56489 0.834889)
C14_243 MM21:DRN MM27:DRN 4.72404e-21
C14_244 MM21:DRN MM21:GATE 1.96108e-17
Cg14_245 MM21:DRN 0 2.95447e-18
C14_246 MM6:DRN MM12:DRN 8.70551e-21
C14_247 MM6:DRN MM21:GATE 4.31178e-18
C14_248 MM6:DRN MM6:GATE 1.11698e-17
Cg14_249 MM6:DRN 0 2.8225e-18
C14_250 XI6/xC0:T2 SL2B 8.48556e-19
C14_251 XI6/xC0:T2 TOP_ARRAY:14 1.02315e-18
C14_252 XI6/xC0:T2 XI9/xC0:T1 2.76403e-18
C14_253 XI6/xC0:T2 TOP_ARRAY:13 1.32799e-16
C14_254 XI6/xC0:T2 XI6/xC0:T1 5.03308e-16
Cg14_255 XI6/xC0:T2 0 4.05995e-18
C14_256 net39:7 MM21:GATE 1.49938e-17
C14_257 net39:7 XI9/xC0:T1 2.82909e-19
C14_258 net39:7 MM6:GATE 1.96837e-18
C14_259 net39:7 XI6/xC0:T1 1.99987e-16
C14_260 net39:7 XI12/xC0:T2 2.67522e-17
C14_261 net39:7 XI12/xC0:T1 2.01225e-18
C14_262 net39:7 net060:7 8.52134e-18
Cg14_263 net39:7 0 1.31743e-16
R14_131 net39:1 net39:2 112.902
R14_132 net39:1 net39:3 112.902
R14_133 net39:1 net39:8 11.25
R14_134 net39:2 MM6:DRN 43.8
R14_135 net39:2 net39:8 31.0583
R14_136 net39:3 MM6:DRN 43.8
R14_137 net39:3 net39:8 31.0583
R14_138 net39:4 net39:5 92.8303
R14_139 net39:4 net39:6 92.8303
R14_140 net39:4 net39:9 9.24999
R14_141 net39:5 MM21:DRN 36.0133
R14_142 net39:5 net39:9 25.5368
R14_143 net39:6 MM21:DRN 36.0133
R14_144 net39:6 net39:9 25.5368
R14_145 MM21:DRN net39:9 18.0067
R14_146 MM6:DRN net39:8 21.9
R14_147 XI6/xC0:T2 net39:7 46.4219
R14_148 net39:7 net39:8 90
R14_149 net39:7 net39:9 81.6881

*|NET net51 0.00110723PF
*|I (MM24:DRN MM24 DRN B 0 2.14744 0.534889)
*|I (MM9:DRN MM9 DRN B 0 2.14744 0.109889)
*|I (XI9/xC0:T2 XI9/xC0 T2 B 0 2.19489 0.834889)
C15_264 MM24:DRN MM21:DRN 4.72404e-21
C15_265 MM24:DRN MM24:GATE 1.96108e-17
Cg15_266 MM24:DRN 0 2.95447e-18
C15_267 MM9:DRN MM6:DRN 8.70551e-21
C15_268 MM9:DRN MM24:GATE 4.31178e-18
C15_269 MM9:DRN MM9:GATE 1.11698e-17
Cg15_270 MM9:DRN 0 2.8225e-18
C15_271 XI9/xC0:T2 net39:7 1.28691e-17
C15_272 XI9/xC0:T2 SL2A 8.48556e-19
C15_273 XI9/xC0:T2 XI3/xC0:T1 2.76403e-18
C15_274 XI9/xC0:T2 XI9/xC0:T1 6.27164e-16
Cg15_275 XI9/xC0:T2 0 4.05995e-18
C15_276 net51:7 net39:7 1.7446e-18
C15_277 net51:7 MM18:GATE 1.49051e-18
C15_278 net51:7 MM24:GATE 1.49938e-17
C15_279 net51:7 XI3/xC0:T1 2.82909e-19
C15_280 net51:7 MM3:GATE 1.8863e-19
C15_281 net51:7 XI9/xC0:T1 7.60939e-17
C15_282 net51:7 MM9:GATE 1.96837e-18
C15_283 net51:7 TOP_ARRAY:13 1.02315e-18
C15_284 net51:7 TOP_ARRAY:12 1.32836e-16
C15_285 net51:7 XI6/xC0:T2 2.06599e-17
C15_286 net51:7 XI6/xC0:T1 2.01225e-18
Cg15_287 net51:7 0 1.30064e-16
R15_150 net51:1 net51:2 112.902
R15_151 net51:1 net51:3 112.902
R15_152 net51:1 net51:8 11.25
R15_153 net51:2 MM9:DRN 43.8
R15_154 net51:2 net51:8 31.0583
R15_155 net51:3 MM9:DRN 43.8
R15_156 net51:3 net51:8 31.0583
R15_157 net51:4 net51:5 92.8303
R15_158 net51:4 net51:6 92.8303
R15_159 net51:4 net51:9 9.24999
R15_160 net51:5 MM24:DRN 36.0133
R15_161 net51:5 net51:9 25.5368
R15_162 net51:6 MM24:DRN 36.0133
R15_163 net51:6 net51:9 25.5368
R15_164 MM24:DRN net51:9 18.0067
R15_165 MM9:DRN net51:8 21.9
R15_166 XI9/xC0:T2 net51:7 46.4219
R15_167 net51:7 net51:8 90
R15_168 net51:7 net51:9 81.6881

*|NET net024 0.00110723PF
*|I (MM18:DRN MM18 DRN B 0 2.77744 0.534889)
*|I (MM3:DRN MM3 DRN B 0 2.77744 0.109889)
*|I (XI3/xC0:T2 XI3/xC0 T2 B 0 2.82489 0.834889)
C16_288 MM18:DRN MM24:DRN 4.72404e-21
C16_289 MM18:DRN MM18:GATE 1.96108e-17
Cg16_290 MM18:DRN 0 2.95447e-18
C16_291 MM3:DRN MM9:DRN 8.70551e-21
C16_292 MM3:DRN MM18:GATE 4.31178e-18
C16_293 MM3:DRN MM3:GATE 1.11698e-17
Cg16_294 MM3:DRN 0 2.8225e-18
C16_295 XI3/xC0:T2 net51:7 1.57716e-17
C16_296 XI3/xC0:T2 SL2A 8.48556e-19
C16_297 XI3/xC0:T2 XI10/xC0:T1 2.75143e-18
C16_298 XI3/xC0:T2 XI3/xC0:T1 6.31559e-16
Cg16_299 XI3/xC0:T2 0 4.05995e-18
C16_300 net024:7 MM18:GATE 1.49938e-17
C16_301 net024:7 net51:7 1.7446e-18
C16_302 net024:7 XI10/xC0:T1 2.82909e-19
C16_303 net024:7 XI3/xC0:T1 7.16862e-17
C16_304 net024:7 MM3:GATE 1.96837e-18
C16_305 net024:7 XI9/xC0:T2 1.77574e-17
C16_306 net024:7 XI9/xC0:T1 2.01225e-18
C16_307 net024:7 TOP_ARRAY:12 1.02315e-18
C16_308 net024:7 TOP_ARRAY:11 1.32849e-16
C16_309 net024:7 TOP_ARRAY:10 1.26007e-20
Cg16_310 net024:7 0 1.31743e-16
R16_169 net024:1 net024:2 112.902
R16_170 net024:1 net024:3 112.902
R16_171 net024:1 net024:8 11.25
R16_172 net024:2 MM3:DRN 43.8
R16_173 net024:2 net024:8 31.0583
R16_174 net024:3 MM3:DRN 43.8
R16_175 net024:3 net024:8 31.0583
R16_176 net024:4 net024:5 92.8303
R16_177 net024:4 net024:6 92.8303
R16_178 net024:4 net024:9 9.24999
R16_179 net024:5 MM18:DRN 36.0133
R16_180 net024:5 net024:9 25.5368
R16_181 net024:6 MM18:DRN 36.0133
R16_182 net024:6 net024:9 25.5368
R16_183 MM18:DRN net024:9 18.0067
R16_184 MM3:DRN net024:8 21.9
R16_185 XI3/xC0:T2 net024:7 46.4219
R16_186 net024:7 net024:8 90
R16_187 net024:7 net024:9 81.6881

*|NET net55 0.00110723PF
*|I (MM25:DRN MM25 DRN B 0 3.40744 0.534889)
*|I (MM10:DRN MM10 DRN B 0 3.40744 0.109889)
*|I (XI10/xC0:T2 XI10/xC0 T2 B 0 3.45489 0.834889)
C17_311 MM25:DRN MM18:DRN 4.72404e-21
C17_312 MM25:DRN MM25:GATE 1.96108e-17
Cg17_313 MM25:DRN 0 2.95447e-18
C17_314 MM10:DRN MM3:DRN 8.70551e-21
C17_315 MM10:DRN MM25:GATE 4.31178e-18
C17_316 MM10:DRN MM10:GATE 1.11698e-17
Cg17_317 MM10:DRN 0 2.8225e-18
C17_318 XI10/xC0:T2 SL3B 8.48556e-19
C17_319 XI10/xC0:T2 XI10/xC0:T1 6.34733e-16
C17_320 XI10/xC0:T2 XI5/xC0:T1 2.76403e-18
C17_321 XI10/xC0:T2 net024:7 2.30566e-17
Cg17_322 XI10/xC0:T2 0 4.05995e-18
C17_323 net55:7 XI5/xC0:T1 2.82909e-19
C17_324 net55:7 net024:7 1.7446e-18
C17_325 net55:7 XI10/xC0:T1 7.01834e-17
C17_326 net55:7 MM5:GATE 1.8863e-19
C17_327 net55:7 MM10:GATE 1.96837e-18
C17_328 net55:7 XI3/xC0:T2 1.04723e-17
C17_329 net55:7 XI3/xC0:T1 2.02485e-18
C17_330 net55:7 TOP_ARRAY:11 1.01055e-18
C17_331 net55:7 TOP_ARRAY:10 1.31177e-16
C17_332 net55:7 MM20:GATE 1.49051e-18
C17_333 net55:7 MM25:GATE 1.49938e-17
Cg17_334 net55:7 0 1.30064e-16
R17_188 net55:1 net55:2 112.902
R17_189 net55:1 net55:3 112.902
R17_190 net55:1 net55:8 11.25
R17_191 net55:2 MM10:DRN 43.8
R17_192 net55:2 net55:8 31.0583
R17_193 net55:3 MM10:DRN 43.8
R17_194 net55:3 net55:8 31.0583
R17_195 net55:4 net55:5 92.8303
R17_196 net55:4 net55:6 92.8303
R17_197 net55:4 net55:9 9.24999
R17_198 net55:5 MM25:DRN 36.0133
R17_199 net55:5 net55:9 25.5368
R17_200 net55:6 MM25:DRN 36.0133
R17_201 net55:6 net55:9 25.5368
R17_202 MM25:DRN net55:9 18.0067
R17_203 MM10:DRN net55:8 21.9
R17_204 XI10/xC0:T2 net55:7 46.4219
R17_205 net55:7 net55:8 90
R17_206 net55:7 net55:9 81.6881

*|NET net35 0.00110723PF
*|I (MM20:DRN MM20 DRN B 0 4.03744 0.534889)
*|I (MM5:DRN MM5 DRN B 0 4.03744 0.109889)
*|I (XI5/xC0:T2 XI5/xC0 T2 B 0 4.08489 0.834889)
C18_335 MM20:DRN MM25:DRN 4.72404e-21
C18_336 MM20:DRN MM20:GATE 1.96108e-17
Cg18_337 MM20:DRN 0 2.95447e-18
C18_338 MM5:DRN MM10:DRN 8.70551e-21
C18_339 MM5:DRN MM20:GATE 4.31178e-18
C18_340 MM5:DRN MM5:GATE 1.11698e-17
Cg18_341 MM5:DRN 0 2.8225e-18
C18_342 net35:7 XI14/xC0:T1 2.82909e-19
C18_343 net35:7 XI5/xC0:T1 4.3054e-17
C18_344 net35:7 MM14:GATE 1.8863e-19
C18_345 net35:7 net55:7 3.52736e-17
C18_346 net35:7 XI10/xC0:T1 2.95509e-19
C18_347 net35:7 MM5:GATE 1.96837e-18
C18_348 net35:7 TOP_ARRAY:10 2.73988e-18
C18_349 net35:7 TOP_ARRAY:9 1.31189e-16
C18_350 net35:7 MM29:GATE 1.49051e-18
C18_351 net35:7 MM20:GATE 1.49938e-17
Cg18_352 net35:7 0 1.34124e-16
C18_353 XI5/xC0:T2 SL3B 8.48556e-19
C18_354 XI5/xC0:T2 XI5/xC0:T1 6.6185e-16
C18_355 XI5/xC0:T2 XI14/xC0:T1 2.76403e-18
R18_207 net35:1 net35:2 112.902
R18_208 net35:1 net35:3 112.902
R18_209 net35:1 net35:8 11.25
R18_210 net35:2 MM5:DRN 43.8
R18_211 net35:2 net35:8 31.0583
R18_212 net35:3 MM5:DRN 43.8
R18_213 net35:3 net35:8 31.0583
R18_214 net35:4 net35:5 92.8303
R18_215 net35:4 net35:6 92.8303
R18_216 net35:4 net35:9 9.24999
R18_217 net35:5 MM20:DRN 36.0133
R18_218 net35:5 net35:9 25.5368
R18_219 net35:6 MM20:DRN 36.0133
R18_220 net35:6 net35:9 25.5368
R18_221 MM20:DRN net35:9 18.0067
R18_222 MM5:DRN net35:8 21.9
R18_223 net35:7 XI5/xC0:T2 46.4219
R18_224 net35:7 net35:8 90
R18_225 net35:7 net35:9 81.6881

*|NET net068 0.00110723PF
*|I (MM29:DRN MM29 DRN B 0 4.66744 0.534889)
*|I (MM14:DRN MM14 DRN B 0 4.66744 0.109889)
*|I (XI14/xC0:T2 XI14/xC0 T2 B 0 4.71489 0.834889)
C19_356 MM29:DRN MM20:DRN 4.72404e-21
C19_357 MM29:DRN MM29:GATE 1.96108e-17
Cg19_358 MM29:DRN 0 2.95447e-18
C19_359 MM14:DRN MM5:DRN 8.70551e-21
C19_360 MM14:DRN MM29:GATE 4.31178e-18
C19_361 MM14:DRN MM14:GATE 1.11698e-17
Cg19_362 MM14:DRN 0 2.8225e-18
C19_363 net068:7 XI14/xC0:T1 3.94413e-17
C19_364 net068:7 MM1:GATE 1.8863e-19
C19_365 net068:7 SL3B 8.48556e-19
C19_366 net068:7 XI5/xC0:T1 2.95509e-19
C19_367 net068:7 MM14:GATE 1.96837e-18
C19_368 net068:7 net35:7 3.52736e-17
C19_369 net068:7 TOP_ARRAY:9 2.73988e-18
C19_370 net068:7 TOP_ARRAY:8 1.31189e-16
C19_371 net068:7 MM16:GATE 1.49051e-18
C19_372 net068:7 MM29:GATE 1.49938e-17
C19_373 net068:7 XI1/xC0:T1 3.04694e-18
Cg19_374 net068:7 0 1.34125e-16
C19_375 XI14/xC0:T2 XI14/xC0:T1 6.65463e-16
R19_226 net068:1 net068:2 112.902
R19_227 net068:1 net068:3 112.902
R19_228 net068:1 net068:8 11.25
R19_229 net068:2 MM14:DRN 43.8
R19_230 net068:2 net068:8 31.0583
R19_231 net068:3 MM14:DRN 43.8
R19_232 net068:3 net068:8 31.0583
R19_233 net068:4 net068:5 92.8303
R19_234 net068:4 net068:6 92.8303
R19_235 net068:4 net068:9 9.24999
R19_236 net068:5 MM29:DRN 36.0133
R19_237 net068:5 net068:9 25.5368
R19_238 net068:6 MM29:DRN 36.0133
R19_239 net068:6 net068:9 25.5368
R19_240 MM29:DRN net068:9 18.0067
R19_241 MM14:DRN net068:8 21.9
R19_242 net068:7 XI14/xC0:T2 46.4219
R19_243 net068:7 net068:8 90
R19_244 net068:7 net068:9 81.6881

*|NET net015 0.00110723PF
*|I (MM16:DRN MM16 DRN B 0 5.29744 0.534889)
*|I (MM1:DRN MM1 DRN B 0 5.29744 0.109889)
*|I (XI1/xC0:T2 XI1/xC0 T2 B 0 5.34489 0.834889)
C20_376 MM16:DRN MM29:DRN 4.72404e-21
C20_377 MM16:DRN MM16:GATE 1.96108e-17
Cg20_378 MM16:DRN 0 2.95447e-18
C20_379 MM1:DRN MM14:DRN 8.70551e-21
C20_380 MM1:DRN MM16:GATE 4.31178e-18
C20_381 MM1:DRN MM1:GATE 1.11698e-17
Cg20_382 MM1:DRN 0 2.8225e-18
C20_383 net015:7 XI14/xC0:T1 2.82909e-19
C20_384 net015:7 MM1:GATE 1.96837e-18
C20_385 net015:7 net068:7 1.8708e-18
C20_386 net015:7 MM16:GATE 1.49938e-17
C20_387 net015:7 XI2/xC0:T1 2.82909e-19
C20_388 net015:7 XI1/xC0:T1 2.42746e-16
Cg20_389 net015:7 0 1.31743e-16
C20_390 XI1/xC0:T2 XI14/xC0:T1 1.26007e-20
C20_391 XI1/xC0:T2 SL3B 8.48556e-19
C20_392 XI1/xC0:T2 net068:7 3.34028e-17
C20_393 XI1/xC0:T2 TOP_ARRAY:8 2.73988e-18
C20_394 XI1/xC0:T2 TOP_ARRAY:7 1.31189e-16
C20_395 XI1/xC0:T2 XI2/xC0:T1 2.76403e-18
C20_396 XI1/xC0:T2 XI1/xC0:T1 4.62158e-16
Cg20_397 XI1/xC0:T2 0 4.05995e-18
R20_245 net015:1 net015:2 112.902
R20_246 net015:1 net015:3 112.902
R20_247 net015:1 net015:8 11.25
R20_248 net015:2 MM1:DRN 43.8
R20_249 net015:2 net015:8 31.0583
R20_250 net015:3 MM1:DRN 43.8
R20_251 net015:3 net015:8 31.0583
R20_252 net015:4 net015:5 92.8303
R20_253 net015:4 net015:6 92.8303
R20_254 net015:4 net015:9 9.24999
R20_255 net015:5 MM16:DRN 36.0133
R20_256 net015:5 net015:9 25.5368
R20_257 net015:6 MM16:DRN 36.0133
R20_258 net015:6 net015:9 25.5368
R20_259 MM16:DRN net015:9 18.0067
R20_260 MM1:DRN net015:8 21.9
R20_261 net015:7 net015:8 90
R20_262 net015:7 XI1/xC0:T2 46.4219
R20_263 net015:7 net015:9 81.6881

*|NET net020 0.00110723PF
*|I (MM17:DRN MM17 DRN B 0 5.92744 0.534889)
*|I (MM2:DRN MM2 DRN B 0 5.92744 0.109889)
*|I (XI2/xC0:T2 XI2/xC0 T2 B 0 5.97489 0.834889)
C21_398 MM17:DRN MM16:DRN 4.72404e-21
C21_399 MM17:DRN SL3A 2.1693e-19
C21_400 MM17:DRN MM17:GATE 1.96108e-17
Cg21_401 MM17:DRN 0 2.73754e-18
C21_402 MM2:DRN MM1:DRN 8.70551e-21
C21_403 MM2:DRN MM17:GATE 4.31178e-18
C21_404 MM2:DRN MM2:GATE 1.11698e-17
Cg21_405 MM2:DRN 0 2.8225e-18
C21_406 net020:7 MM2:GATE 1.96837e-18
C21_407 net020:7 SL3A 4.78099e-19
C21_408 net020:7 net015:7 1.7446e-18
C21_409 net020:7 MM17:GATE 1.49938e-17
C21_410 net020:7 XI8/xC0:T1 2.82909e-19
C21_411 net020:7 XI2/xC0:T1 2.06946e-16
C21_412 net020:7 XI1/xC0:T2 2.82874e-17
C21_413 net020:7 XI1/xC0:T1 2.95509e-19
Cg21_414 net020:7 0 1.31261e-16
C21_415 XI2/xC0:T2 SL3A 7.24622e-19
C21_416 XI2/xC0:T2 net015:7 5.24159e-18
C21_417 XI2/xC0:T2 TOP_ARRAY:7 2.73988e-18
C21_418 XI2/xC0:T2 TOP_ARRAY:6 1.31194e-16
C21_419 XI2/xC0:T2 XI8/xC0:T1 2.76281e-18
C21_420 XI2/xC0:T2 XI2/xC0:T1 4.97943e-16
Cg21_421 XI2/xC0:T2 0 4.19346e-18
R21_264 net020:1 net020:2 112.902
R21_265 net020:1 net020:3 112.902
R21_266 net020:1 net020:8 11.25
R21_267 net020:2 MM2:DRN 43.8
R21_268 net020:2 net020:8 31.0583
R21_269 net020:3 MM2:DRN 43.8
R21_270 net020:3 net020:8 31.0583
R21_271 net020:4 net020:5 92.8303
R21_272 net020:4 net020:6 92.8303
R21_273 net020:4 net020:9 9.24999
R21_274 net020:5 MM17:DRN 36.0133
R21_275 net020:5 net020:9 25.5368
R21_276 net020:6 MM17:DRN 36.0133
R21_277 net020:6 net020:9 25.5368
R21_278 MM17:DRN net020:9 18.0067
R21_279 MM2:DRN net020:8 21.9
R21_280 net020:7 net020:9 81.6881
R21_281 net020:7 net020:8 90
R21_282 net020:7 XI2/xC0:T2 46.4219

*|NET net47 0.00110723PF
*|I (MM23:DRN MM23 DRN B 0 6.55744 0.534889)
*|I (MM8:DRN MM8 DRN B 0 6.55744 0.109889)
*|I (XI8/xC0:T2 XI8/xC0 T2 B 0 6.60489 0.834889)
C22_422 MM23:DRN MM17:DRN 4.72404e-21
C22_423 MM23:DRN MM23:GATE 1.96108e-17
Cg22_424 MM23:DRN 0 2.95447e-18
C22_425 MM8:DRN MM2:DRN 8.70551e-21
C22_426 MM8:DRN MM23:GATE 4.31178e-18
C22_427 MM8:DRN MM8:GATE 1.11698e-17
Cg22_428 MM8:DRN 0 2.8225e-18
C22_429 net47:7 net020:7 1.7446e-18
C22_430 net47:7 XI13/xC0:T1 2.82909e-19
C22_431 net47:7 MM23:GATE 1.49938e-17
C22_432 net47:7 XI8/xC0:T1 2.04399e-16
C22_433 net47:7 XI2/xC0:T2 2.06599e-17
C22_434 net47:7 XI2/xC0:T1 2.95509e-19