*
*|DSPF 1.3
*|DESIGN ARRAY_CMP_T1
*|DATE "Sat Dec  5 00:36:54 2020"
*|VENDOR "Synopsys"
*|PROGRAM "StarRC"
*|VERSION "K-2015.06-SP1"
*|DIVIDER /
*|DELIMITER :
**FORMAT SPF
*

** COMMENTS

** OPERATING_TEMPERATURE 25
** GLOBAL_TEMPERATURE 25
** TCAD_GRD_FILE /raidj/user/t28/t28u25/etron/ADC_SAR4BIT/runLPE/cln28hpc+_1p09m+ut-alrdl_6x2z_typical.nxtgrd
**   TCAD_TIME_STAMP Thu Jun 25 12:48:01 2015
**   TCADGRD_VERSION 80
** HALF_NODE_SCALE_FACTOR 0.9


.SUBCKT ARRAY_CMP_T1 TOP_ARRAY SL1B SL1A SL2B SL2A SL3B SL3A

*|GROUND_NET 0

*|NET SL3B 0.00481083PF
*|P (SL3B O 0 0.589889 -0.894889)
*|I (XI14/xC0:T2 XI14/xC0 T2 B 0 1.46989 1.30989)
*|I (XI10/xC0:T2 XI10/xC0 T2 B 0 1.67989 1.30989)
*|I (XI5/xC0:T2 XI5/xC0 T2 B 0 3.14989 1.30989)
*|I (XI1/xC0:T2 XI1/xC0 T2 B 0 3.35989 1.30989)
Cg6_1 XI14/xC0:T2 0 1.06161e-18
Cg6_2 XI10/xC0:T2 0 2.91343e-17
Cg6_3 XI5/xC0:T2 0 3.23967e-17
Cg6_4 XI1/xC0:T2 0 3.42366e-17
Cg6_5 SL3B:1 0 2.3107e-16
Cg6_6 SL3B:2 0 4.30525e-17
Cg6_7 SL3B:3 0 6.74515e-17
R6_1 SL3B SL3B:3 3.67405
R6_2 XI14/xC0:T2 SL3B:3 45.4199
R6_3 XI10/xC0:T2 SL3B:2 45.4583
R6_4 XI5/xC0:T2 SL3B:1 45.4583
R6_5 XI1/xC0:T2 SL3B:1 46.2844
R6_6 SL3B:1 SL3B:2 6.05138
R6_7 SL3B:2 SL3B:3 0.864483

*|NET SL3A 0.00471805PF
*|P (SL3A O 0 0.589889 -0.644889)
*|I (XI13/xC0:T2 XI13/xC0 T2 B 0 1.04989 1.30989)
*|I (XI11/xC0:T2 XI11/xC0 T2 B 0 1.25989 1.30989)
*|I (XI4/xC0:T2 XI4/xC0 T2 B 0 3.56989 1.30989)
*|I (XI2/xC0:T2 XI2/xC0 T2 B 0 3.77989 1.30989)
C7_8 XI13/xC0:T2 SL3B:3 9.29726e-19
C7_9 XI13/xC0:T2 XI14/xC0:T2 4.83319e-18
C7_10 XI13/xC0:T2 SL3B:1 2.77892e-18
Cg7_11 XI13/xC0:T2 0 7.74986e-17
C7_12 XI11/xC0:T2 SL3B:3 1.7953e-17
C7_13 XI11/xC0:T2 XI10/xC0:T2 5.76291e-18
C7_14 XI11/xC0:T2 XI14/xC0:T2 3.39634e-17
C7_15 XI11/xC0:T2 SL3B:1 2.77892e-18
Cg7_16 XI11/xC0:T2 0 2.9385e-17
C7_17 XI4/xC0:T2 XI1/xC0:T2 1.29109e-16
C7_18 XI4/xC0:T2 XI5/xC0:T2 5.76291e-18
Cg7_19 XI4/xC0:T2 0 8.42853e-17
C7_20 XI2/xC0:T2 XI1/xC0:T2 5.76291e-18
C7_21 XI2/xC0:T2 SL3B:1 2.77892e-18
Cg7_22 XI2/xC0:T2 0 9.45879e-17
C7_23 SL3A:1 XI1/xC0:T2 5.06651e-17
C7_24 SL3A:1 XI5/xC0:T2 1.22333e-17
C7_25 SL3A:1 XI10/xC0:T2 1.22333e-17
C7_26 SL3A:1 XI14/xC0:T2 1.22333e-17
C7_27 SL3A:1 SL3B:1 1.56971e-16
Cg7_28 SL3A:1 0 4.40065e-16
C7_29 SL3A:2 SL3B:3 8.99245e-17
C7_30 SL3A:2 XI14/xC0:T2 4.36111e-17
Cg7_31 SL3A:2 0 3.87778e-17
Cg7_32 SL3A:3 0 1.60526e-16
R7_8 SL3A SL3A:3 1.94509
R7_9 XI13/xC0:T2 SL3A:3 44.3896
R7_10 XI11/xC0:T2 SL3A:2 44.5229
R7_11 XI4/xC0:T2 SL3A:1 44.5229
R7_12 XI2/xC0:T2 SL3A:1 45.3404
R7_13 SL3A:1 SL3A:2 9.50931
R7_14 SL3A:2 SL3A:3 0.864483

*|NET SL2B 0.0027189PF
*|P (SL2B O 0 0.589889 -1.39489)
*|I (XI12/xC0:T2 XI12/xC0 T2 B 0 2.30989 1.30989)
*|I (XI6/xC0:T2 XI6/xC0 T2 B 0 2.51989 1.30989)
Cg4_33 XI12/xC0:T2 0 2.90643e-17
Cg4_34 XI6/xC0:T2 0 2.51785e-17
Cg4_35 SL2B:1 0 2.34377e-16
R4_15 SL2B SL2B:1 7.13199
R4_16 XI12/xC0:T2 SL2B:1 47.329
R4_17 XI6/xC0:T2 SL2B:1 48.1934

*|NET SL2A 0.00307962PF
*|P (SL2A O 0 0.589889 -1.14489)
*|I (XI9/xC0:T2 XI9/xC0 T2 B 0 1.88989 1.30989)
*|I (XI3/xC0:T2 XI3/xC0 T2 B 0 2.93989 1.30989)
C5_36 XI9/xC0:T2 SL3B:3 4.77608e-18
C5_37 XI9/xC0:T2 XI12/xC0:T2 1.11399e-18
C5_38 XI9/xC0:T2 SL3B:2 4.22842e-17
C5_39 XI9/xC0:T2 XI10/xC0:T2 4.74723e-17
C5_40 XI9/xC0:T2 SL2B:1 2.6896e-18
C5_41 XI9/xC0:T2 XI14/xC0:T2 1.87802e-18
C5_42 XI9/xC0:T2 SL3B:1 1.22316e-17
Cg5_43 XI9/xC0:T2 0 1.47414e-17
C5_44 XI3/xC0:T2 XI1/xC0:T2 6.6094e-18
C5_45 XI3/xC0:T2 XI5/xC0:T2 4.8654e-17
C5_46 XI3/xC0:T2 XI6/xC0:T2 7.52613e-18
C5_47 XI3/xC0:T2 SL3B:1 1.24263e-16
Cg5_48 XI3/xC0:T2 0 1.44622e-17
C5_49 SL2A:1 XI1/xC0:T2 2.82096e-18
C5_50 SL2A:1 XI6/xC0:T2 1.22333e-17
C5_51 SL2A:1 SL3B:3 2.77627e-18
C5_52 SL2A:1 XI12/xC0:T2 6.41214e-18
C5_53 SL2A:1 SL3B:2 1.03793e-16
C5_54 SL2A:1 XI10/xC0:T2 4.44412e-18
C5_55 SL2A:1 SL2B:1 1.57539e-16
C5_56 SL2A:1 SL3B:1 1.77503e-16
Cg5_57 SL2A:1 0 2.34375e-16
R5_18 SL2A SL2A:1 5.40302
R5_19 XI9/xC0:T2 SL2A:1 46.3552
R5_20 XI3/xC0:T2 SL2A:1 50.6776

*|NET SL1B 0.00176089PF
*|P (SL1B O 0 0.589889 -1.85489)
*|I (XI8/xC0:T2 XI8/xC0 T2 B 0 2.09989 1.30989)
C2_58 SL1B XI9/xC0:T2 6.99841e-17
C2_59 SL1B XI12/xC0:T2 4.18193e-17
C2_60 SL1B XI6/xC0:T2 5.7783e-19
C2_61 SL1B SL2B:1 1.47182e-17
C2_62 SL1B SL2A:1 5.80089e-17
Cg2_63 SL1B 0 2.45496e-16
C2_64 XI8/xC0:T2 XI6/xC0:T2 1.11399e-18
C2_65 XI8/xC0:T2 XI12/xC0:T2 2.62569e-17
C2_66 XI8/xC0:T2 SL2A:1 6.29788e-17
C2_67 XI8/xC0:T2 XI9/xC0:T2 2.62569e-17
C2_68 XI8/xC0:T2 SL2B:1 1.69423e-16
Cg2_69 XI8/xC0:T2 0 3.79191e-17
R2_21 SL1B XI8/xC0:T2 55.0551

*|NET SL1A 0.00181889PF
*|P (SL1A O 0 0.589889 -1.64489)
*|I (XI7/xC0:T2 XI7/xC0 T2 B 0 2.72989 1.30989)
C3_70 SL1A SL1B 1.87559e-16
C3_71 SL1A XI8/xC0:T2 1.81173e-17
C3_72 SL1A XI6/xC0:T2 5.40781e-17
C3_73 SL1A XI3/xC0:T2 6.62578e-17
C3_74 SL1A SL2B:1 2.13448e-16
C3_75 SL1A SL2A:1 5.68406e-17
Cg3_76 SL1A 0 1.6492e-16
C3_77 XI7/xC0:T2 XI3/xC0:T2 3.0701e-17
C3_78 XI7/xC0:T2 XI6/xC0:T2 2.95193e-17
C3_79 XI7/xC0:T2 XI12/xC0:T2 1.12089e-17
C3_80 XI7/xC0:T2 SL2A:1 7.62191e-17
C3_81 XI7/xC0:T2 XI9/xC0:T2 5.49984e-19
C3_82 XI7/xC0:T2 SL2B:1 7.92808e-17
Cg3_83 XI7/xC0:T2 0 2.95328e-17
R3_22 SL1A XI7/xC0:T2 57.2773

*|NET TOP_ARRAY 0.0167552PF
*|P (TOP_ARRAY O 0 0.484889 2.56489)
*|I (XI37/xC0:T1 XI37/xC0 T1 B 0 0.542444 1.63489)
*|I (XI35/xC0:T1 XI35/xC0 T1 B 0 0.752444 1.63489)
*|I (XI13/xC0:T1 XI13/xC0 T1 B 0 0.962444 1.63489)
*|I (XI11/xC0:T1 XI11/xC0 T1 B 0 1.17244 1.63489)
*|I (XI14/xC0:T1 XI14/xC0 T1 B 0 1.38244 1.63489)
*|I (XI10/xC0:T1 XI10/xC0 T1 B 0 1.59244 1.63489)
*|I (XI9/xC0:T1 XI9/xC0 T1 B 0 1.80244 1.63489)
*|I (XI8/xC0:T1 XI8/xC0 T1 B 0 2.01244 1.63489)
*|I (XI12/xC0:T1 XI12/xC0 T1 B 0 2.22244 1.63489)
*|I (XI6/xC0:T1 XI6/xC0 T1 B 0 2.43244 1.63489)
*|I (XI7/xC0:T1 XI7/xC0 T1 B 0 2.64244 1.63489)
*|I (XI3/xC0:T1 XI3/xC0 T1 B 0 2.85244 1.63489)
*|I (XI5/xC0:T1 XI5/xC0 T1 B 0 3.06244 1.63489)
*|I (XI1/xC0:T1 XI1/xC0 T1 B 0 3.27244 1.63489)
*|I (XI4/xC0:T1 XI4/xC0 T1 B 0 3.48244 1.63489)
*|I (XI2/xC0:T1 XI2/xC0 T1 B 0 3.69244 1.63489)
*|I (XI34/xC0:T1 XI34/xC0 T1 B 0 3.90244 1.63489)
*|I (XI0/xC0:T1 XI0/xC0 T1 B 0 4.11244 1.63489)
*|I (XI36/xC0:T1 XI36/xC0 T1 B 0 4.32244 1.63489)
Cg1_84 TOP_ARRAY 0 4.45388e-17
Cg1_85 XI37/xC0:T1 0 1.88226e-17
C1_86 TOP_ARRAY:37 XI2/xC0:T2 4.14481e-18
C1_87 TOP_ARRAY:37 XI4/xC0:T2 4.14481e-18
C1_88 TOP_ARRAY:37 XI1/xC0:T2 4.14481e-18
C1_89 TOP_ARRAY:37 XI5/xC0:T2 4.14481e-18
C1_90 TOP_ARRAY:37 XI3/xC0:T2 4.14481e-18
C1_91 TOP_ARRAY:37 XI7/xC0:T2 4.14481e-18
C1_92 TOP_ARRAY:37 XI6/xC0:T2 4.14481e-18
C1_93 TOP_ARRAY:37 XI12/xC0:T2 4.14481e-18
C1_94 TOP_ARRAY:37 XI8/xC0:T2 4.14481e-18
C1_95 TOP_ARRAY:37 XI9/xC0:T2 4.14481e-18
C1_96 TOP_ARRAY:37 XI10/xC0:T2 4.14481e-18
C1_97 TOP_ARRAY:37 XI14/xC0:T2 4.14481e-18
C1_98 TOP_ARRAY:37 XI11/xC0:T2 4.14481e-18
C1_99 TOP_ARRAY:37 XI13/xC0:T2 4.14481e-18
Cg1_100 TOP_ARRAY:37 0 3.68246e-16
Cg1_101 TOP_ARRAY:38 0 5.43109e-16
Cg1_102 TOP_ARRAY:39 0 2.66441e-16
C1_103 TOP_ARRAY:40 XI2/xC0:T2 1.31656e-16
Cg1_104 TOP_ARRAY:40 0 1.34787e-16
C1_105 TOP_ARRAY:41 XI4/xC0:T2 1.31656e-16
C1_106 TOP_ARRAY:41 XI2/xC0:T2 1.31656e-16
Cg1_107 TOP_ARRAY:41 0 3.13363e-18
C1_108 TOP_ARRAY:42 XI1/xC0:T2 1.31656e-16
C1_109 TOP_ARRAY:42 XI4/xC0:T2 1.31656e-16
Cg1_110 TOP_ARRAY:42 0 3.13363e-18
C1_111 TOP_ARRAY:43 XI5/xC0:T2 1.31656e-16
C1_112 TOP_ARRAY:43 XI1/xC0:T2 1.31656e-16
Cg1_113 TOP_ARRAY:43 0 3.13363e-18
C1_114 TOP_ARRAY:44 XI3/xC0:T2 1.31656e-16
C1_115 TOP_ARRAY:44 XI5/xC0:T2 1.31656e-16
Cg1_116 TOP_ARRAY:44 0 3.13363e-18
C1_117 TOP_ARRAY:45 XI7/xC0:T2 1.31656e-16
C1_118 TOP_ARRAY:45 XI3/xC0:T2 1.31656e-16
Cg1_119 TOP_ARRAY:45 0 3.13363e-18
C1_120 TOP_ARRAY:46 XI6/xC0:T2 1.31656e-16
C1_121 TOP_ARRAY:46 XI7/xC0:T2 1.31656e-16
Cg1_122 TOP_ARRAY:46 0 3.13363e-18
C1_123 TOP_ARRAY:47 XI12/xC0:T2 1.31656e-16
C1_124 TOP_ARRAY:47 XI6/xC0:T2 1.31656e-16
Cg1_125 TOP_ARRAY:47 0 3.13363e-18
C1_126 TOP_ARRAY:48 XI8/xC0:T2 1.31656e-16
C1_127 TOP_ARRAY:48 XI12/xC0:T2 1.31656e-16
Cg1_128 TOP_ARRAY:48 0 3.13363e-18
C1_129 TOP_ARRAY:49 XI9/xC0:T2 1.31656e-16
C1_130 TOP_ARRAY:49 XI8/xC0:T2 1.31656e-16
Cg1_131 TOP_ARRAY:49 0 3.13363e-18
C1_132 TOP_ARRAY:50 XI10/xC0:T2 1.31656e-16
C1_133 TOP_ARRAY:50 XI9/xC0:T2 1.31656e-16
Cg1_134 TOP_ARRAY:50 0 3.13363e-18
C1_135 TOP_ARRAY:51 XI14/xC0:T2 1.31656e-16
C1_136 TOP_ARRAY:51 XI10/xC0:T2 1.31656e-16
Cg1_137 TOP_ARRAY:51 0 3.13363e-18
C1_138 TOP_ARRAY:52 XI11/xC0:T2 1.31656e-16
C1_139 TOP_ARRAY:52 XI14/xC0:T2 1.31656e-16
Cg1_140 TOP_ARRAY:52 0 3.13363e-18
C1_141 TOP_ARRAY:53 XI13/xC0:T2 1.31656e-16
C1_142 TOP_ARRAY:53 XI11/xC0:T2 1.31656e-16
Cg1_143 TOP_ARRAY:53 0 3.13363e-18
C1_144 TOP_ARRAY:54 XI13/xC0:T2 1.31656e-16
Cg1_145 TOP_ARRAY:54 0 1.34787e-16
Cg1_146 TOP_ARRAY:55 0 2.66643e-16
Cg1_147 TOP_ARRAY:56 0 6.09409e-16
Cg1_148 TOP_ARRAY:57 0 2.70496e-16
C1_149 TOP_ARRAY:58 XI2/xC0:T2 1.3385e-16
Cg1_150 TOP_ARRAY:58 0 1.36648e-16
C1_151 TOP_ARRAY:59 XI4/xC0:T2 1.3385e-16
C1_152 TOP_ARRAY:59 XI2/xC0:T2 1.3385e-16
Cg1_153 TOP_ARRAY:59 0 2.80047e-18
C1_154 TOP_ARRAY:60 XI1/xC0:T2 1.3385e-16
C1_155 TOP_ARRAY:60 XI4/xC0:T2 1.3385e-16
Cg1_156 TOP_ARRAY:60 0 2.80047e-18
C1_157 TOP_ARRAY:61 XI5/xC0:T2 1.3385e-16
C1_158 TOP_ARRAY:61 XI1/xC0:T2 1.3385e-16
Cg1_159 TOP_ARRAY:61 0 2.80047e-18
C1_160 TOP_ARRAY:62 XI3/xC0:T2 1.3385e-16
C1_161 TOP_ARRAY:62 XI5/xC0:T2 1.3385e-16
Cg1_162 TOP_ARRAY:62 0 2.80047e-18
C1_163 TOP_ARRAY:63 XI7/xC0:T2 1.3385e-16
C1_164 TOP_ARRAY:63 XI3/xC0:T2 1.3385e-16
Cg1_165 TOP_ARRAY:63 0 2.80047e-18
C1_166 TOP_ARRAY:64 XI6/xC0:T2 1.3385e-16
C1_167 TOP_ARRAY:64 XI7/xC0:T2 1.3385e-16
Cg1_168 TOP_ARRAY:64 0 2.80047e-18
C1_169 TOP_ARRAY:65 XI12/xC0:T2 1.3385e-16
C1_170 TOP_ARRAY:65 XI6/xC0:T2 1.3385e-16
Cg1_171 TOP_ARRAY:65 0 2.80047e-18
C1_172 TOP_ARRAY:66 XI8/xC0:T2 1.3385e-16
C1_173 TOP_ARRAY:66 XI12/xC0:T2 1.3385e-16
Cg1_174 TOP_ARRAY:66 0 2.80047e-18
C1_175 TOP_ARRAY:67 XI9/xC0:T2 1.3385e-16
C1_176 TOP_ARRAY:67 XI8/xC0:T2 1.3385e-16
Cg1_177 TOP_ARRAY:67 0 2.80047e-18
C1_178 TOP_ARRAY:68 XI10/xC0:T2 1.3385e-16
C1_179 TOP_ARRAY:68 XI9/xC0:T2 1.3385e-16
Cg1_180 TOP_ARRAY:68 0 2.80047e-18
C1_181 TOP_ARRAY:69 XI14/xC0:T2 1.3385e-16
C1_182 TOP_ARRAY:69 XI10/xC0:T2 1.3385e-16
Cg1_183 TOP_ARRAY:69 0 2.80047e-18
C1_184 TOP_ARRAY:70 XI11/xC0:T2 1.3385e-16
C1_185 TOP_ARRAY:70 XI14/xC0:T2 1.3385e-16
Cg1_186 TOP_ARRAY:70 0 2.80047e-18
C1_187 TOP_ARRAY:71 XI13/xC0:T2 1.3385e-16
C1_188 TOP_ARRAY:71 XI11/xC0:T2 1.3385e-16
Cg1_189 TOP_ARRAY:71 0 2.80047e-18
C1_190 TOP_ARRAY:72 XI13/xC0:T2 1.3385e-16
Cg1_191 TOP_ARRAY:72 0 1.36649e-16
C1_192 TOP_ARRAY:73 XI2/xC0:T2 3.38462e-18
C1_193 TOP_ARRAY:73 XI4/xC0:T2 3.38462e-18
C1_194 TOP_ARRAY:73 XI1/xC0:T2 3.38462e-18
C1_195 TOP_ARRAY:73 XI5/xC0:T2 3.38462e-18
C1_196 TOP_ARRAY:73 XI3/xC0:T2 3.38462e-18
C1_197 TOP_ARRAY:73 XI7/xC0:T2 3.38462e-18
C1_198 TOP_ARRAY:73 XI6/xC0:T2 3.38462e-18
C1_199 TOP_ARRAY:73 XI12/xC0:T2 3.38462e-18
C1_200 TOP_ARRAY:73 XI8/xC0:T2 3.38462e-18
C1_201 TOP_ARRAY:73 XI9/xC0:T2 3.38462e-18
C1_202 TOP_ARRAY:73 XI10/xC0:T2 3.38462e-18
C1_203 TOP_ARRAY:73 XI14/xC0:T2 3.38462e-18
C1_204 TOP_ARRAY:73 XI11/xC0:T2 3.38462e-18
C1_205 TOP_ARRAY:73 XI13/xC0:T2 3.38462e-18
Cg1_206 TOP_ARRAY:73 0 6.03055e-16
Cg1_207 TOP_ARRAY:74 0 7.66298e-16
C1_208 TOP_ARRAY:75 SL3A:1 1.29091e-16
Cg1_209 TOP_ARRAY:75 0 1.44376e-16
C1_210 TOP_ARRAY:76 XI2/xC0:T2 1.29091e-16
C1_211 TOP_ARRAY:76 SL3A:1 1.29091e-16
Cg1_212 TOP_ARRAY:76 0 1.52849e-17
C1_213 TOP_ARRAY:77 SL3B:1 1.16893e-16
C1_214 TOP_ARRAY:77 XI1/xC0:T2 1.21981e-17
C1_215 TOP_ARRAY:77 SL3A:1 1.29091e-16
Cg1_216 TOP_ARRAY:77 0 1.52849e-17
C1_217 TOP_ARRAY:78 SL3B:1 2.58183e-16
Cg1_218 TOP_ARRAY:78 0 1.52849e-17
C1_219 TOP_ARRAY:79 SL2A:1 1.29091e-16
C1_220 TOP_ARRAY:79 XI5/xC0:T2 1.29091e-16
Cg1_221 TOP_ARRAY:79 0 1.52849e-17
C1_222 TOP_ARRAY:80 XI7/xC0:T2 1.29091e-16
C1_223 TOP_ARRAY:80 XI3/xC0:T2 1.29091e-16
Cg1_224 TOP_ARRAY:80 0 1.52849e-17
C1_225 TOP_ARRAY:81 SL2B:1 1.29091e-16
C1_226 TOP_ARRAY:81 XI7/xC0:T2 1.29091e-16
Cg1_227 TOP_ARRAY:81 0 1.52849e-17
C1_228 TOP_ARRAY:82 SL2B:1 1.29091e-16
C1_229 TOP_ARRAY:82 XI6/xC0:T2 1.29091e-16
Cg1_230 TOP_ARRAY:82 0 1.52849e-17
C1_231 TOP_ARRAY:83 XI12/xC0:T2 1.29091e-16
C1_232 TOP_ARRAY:83 SL1B 1.29091e-16
Cg1_233 TOP_ARRAY:83 0 1.52849e-17
C1_234 TOP_ARRAY:84 SL2A:1 1.29091e-16
C1_235 TOP_ARRAY:84 XI8/xC0:T2 1.29091e-16
Cg1_236 TOP_ARRAY:84 0 1.52849e-17
C1_237 TOP_ARRAY:85 XI9/xC0:T2 1.29091e-16
C1_238 TOP_ARRAY:85 SL3B:2 1.29091e-16
Cg1_239 TOP_ARRAY:85 0 1.52849e-17
C1_240 TOP_ARRAY:86 XI10/xC0:T2 1.29091e-16
C1_241 TOP_ARRAY:86 SL3B:3 1.29091e-16
Cg1_242 TOP_ARRAY:86 0 1.52849e-17
C1_243 TOP_ARRAY:87 XI14/xC0:T2 1.29091e-16
C1_244 TOP_ARRAY:87 SL3A:2 1.29091e-16
Cg1_245 TOP_ARRAY:87 0 1.52849e-17
C1_246 TOP_ARRAY:88 XI11/xC0:T2 1.29091e-16
C1_247 TOP_ARRAY:88 SL3A:3 1.29091e-16
Cg1_248 TOP_ARRAY:88 0 1.52849e-17
C1_249 TOP_ARRAY:89 XI13/xC0:T2 1.29091e-16
Cg1_250 TOP_ARRAY:89 0 1.44106e-16
C1_251 TOP_ARRAY:90 XI2/xC0:T2 3.93435e-18
C1_252 TOP_ARRAY:90 XI4/xC0:T2 3.93435e-18
C1_253 TOP_ARRAY:90 XI1/xC0:T2 3.93435e-18
C1_254 TOP_ARRAY:90 XI5/xC0:T2 3.93435e-18
C1_255 TOP_ARRAY:90 XI3/xC0:T2 3.93435e-18
C1_256 TOP_ARRAY:90 XI7/xC0:T2 3.93435e-18
C1_257 TOP_ARRAY:90 XI6/xC0:T2 3.93435e-18
C1_258 TOP_ARRAY:90 XI12/xC0:T2 3.93435e-18
C1_259 TOP_ARRAY:90 XI8/xC0:T2 3.93435e-18
C1_260 TOP_ARRAY:90 XI9/xC0:T2 3.83902e-18
C1_261 TOP_ARRAY:90 XI10/xC0:T2 3.93435e-18
C1_262 TOP_ARRAY:90 XI14/xC0:T2 3.93435e-18
C1_263 TOP_ARRAY:90 XI11/xC0:T2 3.93435e-18
C1_264 TOP_ARRAY:90 XI13/xC0:T2 3.93435e-18
Cg1_265 TOP_ARRAY:90 0 6.81826e-16
R1_23 TOP_ARRAY:1 TOP_ARRAY:2 8
R1_24 TOP_ARRAY:1 TOP_ARRAY:56 0.455838
R1_25 TOP_ARRAY:1 TOP_ARRAY:57 0.142449
R1_26 TOP_ARRAY:2 TOP_ARRAY:38 0.455841
R1_27 TOP_ARRAY:2 TOP_ARRAY:39 0.14245
R1_28 TOP_ARRAY:3 TOP_ARRAY:4 8
R1_29 TOP_ARRAY:3 TOP_ARRAY:57 0.227919
R1_30 TOP_ARRAY:3 TOP_ARRAY:58 0.370368
R1_31 TOP_ARRAY:4 TOP_ARRAY:39 0.22792
R1_32 TOP_ARRAY:4 TOP_ARRAY:40 0.370371
R1_33 TOP_ARRAY:5 TOP_ARRAY:6 8
R1_34 TOP_ARRAY:5 TOP_ARRAY:58 0.370368
R1_35 TOP_ARRAY:5 TOP_ARRAY:59 0.227919
R1_36 TOP_ARRAY:6 TOP_ARRAY:40 0.370371
R1_37 TOP_ARRAY:6 TOP_ARRAY:41 0.22792
R1_38 TOP_ARRAY:7 TOP_ARRAY:8 8
R1_39 TOP_ARRAY:7 TOP_ARRAY:59 0.142449
R1_40 TOP_ARRAY:7 TOP_ARRAY:60 0.455838
R1_41 TOP_ARRAY:8 TOP_ARRAY:41 0.14245
R1_42 TOP_ARRAY:8 TOP_ARRAY:42 0.455841
R1_43 TOP_ARRAY:9 TOP_ARRAY:10 8
R1_44 TOP_ARRAY:9 TOP_ARRAY:60 0.284898
R1_45 TOP_ARRAY:9 TOP_ARRAY:61 0.313388
R1_46 TOP_ARRAY:10 TOP_ARRAY:42 0.2849
R1_47 TOP_ARRAY:10 TOP_ARRAY:43 0.31339
R1_48 TOP_ARRAY:11 TOP_ARRAY:12 8
R1_49 TOP_ARRAY:11 TOP_ARRAY:61 0.427348
R1_50 TOP_ARRAY:11 TOP_ARRAY:62 0.170939
R1_51 TOP_ARRAY:12 TOP_ARRAY:43 0.427351
R1_52 TOP_ARRAY:12 TOP_ARRAY:44 0.17094
R1_53 TOP_ARRAY:13 TOP_ARRAY:14 8
R1_54 TOP_ARRAY:13 TOP_ARRAY:62 0.199429
R1_55 TOP_ARRAY:13 TOP_ARRAY:63 0.398858
R1_56 TOP_ARRAY:14 TOP_ARRAY:44 0.19943
R1_57 TOP_ARRAY:14 TOP_ARRAY:45 0.398861
R1_58 TOP_ARRAY:15 TOP_ARRAY:16 8
R1_59 TOP_ARRAY:15 TOP_ARRAY:63 0.341878
R1_60 TOP_ARRAY:15 TOP_ARRAY:64 0.256409
R1_61 TOP_ARRAY:16 TOP_ARRAY:45 0.341881
R1_62 TOP_ARRAY:16 TOP_ARRAY:46 0.25641
R1_63 TOP_ARRAY:17 TOP_ARRAY:18 8
R1_64 TOP_ARRAY:17 TOP_ARRAY:19 0.370368
R1_65 TOP_ARRAY:17 TOP_ARRAY:64 0.113959
R1_66 TOP_ARRAY:18 TOP_ARRAY:20 0.370371
R1_67 TOP_ARRAY:18 TOP_ARRAY:46 0.11396
R1_68 TOP_ARRAY:19 TOP_ARRAY:20 8
R1_69 TOP_ARRAY:19 TOP_ARRAY:65 0.113959
R1_70 TOP_ARRAY:20 TOP_ARRAY:47 0.11396
R1_71 TOP_ARRAY:21 TOP_ARRAY:22 8
R1_72 TOP_ARRAY:21 TOP_ARRAY:65 0.256409
R1_73 TOP_ARRAY:21 TOP_ARRAY:66 0.341878
R1_74 TOP_ARRAY:22 TOP_ARRAY:47 0.25641
R1_75 TOP_ARRAY:22 TOP_ARRAY:48 0.341881
R1_76 TOP_ARRAY:23 TOP_ARRAY:24 8
R1_77 TOP_ARRAY:23 TOP_ARRAY:66 0.398858
R1_78 TOP_ARRAY:23 TOP_ARRAY:67 0.199429
R1_79 TOP_ARRAY:24 TOP_ARRAY:48 0.398861
R1_80 TOP_ARRAY:24 TOP_ARRAY:49 0.19943
R1_81 TOP_ARRAY:25 TOP_ARRAY:26 8
R1_82 TOP_ARRAY:25 TOP_ARRAY:67 0.170939
R1_83 TOP_ARRAY:25 TOP_ARRAY:68 0.427348
R1_84 TOP_ARRAY:26 TOP_ARRAY:49 0.17094
R1_85 TOP_ARRAY:26 TOP_ARRAY:50 0.427351
R1_86 TOP_ARRAY:27 TOP_ARRAY:28 8
R1_87 TOP_ARRAY:27 TOP_ARRAY:68 0.313388
R1_88 TOP_ARRAY:27 TOP_ARRAY:69 0.284898
R1_89 TOP_ARRAY:28 TOP_ARRAY:50 0.31339
R1_90 TOP_ARRAY:28 TOP_ARRAY:51 0.2849
R1_91 TOP_ARRAY:29 TOP_ARRAY:30 8
R1_92 TOP_ARRAY:29 TOP_ARRAY:69 0.455838
R1_93 TOP_ARRAY:29 TOP_ARRAY:70 0.142449
R1_94 TOP_ARRAY:30 TOP_ARRAY:51 0.455841
R1_95 TOP_ARRAY:30 TOP_ARRAY:52 0.14245
R1_96 TOP_ARRAY:31 TOP_ARRAY:32 8
R1_97 TOP_ARRAY:31 TOP_ARRAY:70 0.227919
R1_98 TOP_ARRAY:31 TOP_ARRAY:71 0.370368
R1_99 TOP_ARRAY:32 TOP_ARRAY:52 0.22792
R1_100 TOP_ARRAY:32 TOP_ARRAY:53 0.370371
R1_101 TOP_ARRAY TOP_ARRAY:90 24.9408
R1_102 TOP_ARRAY:33 TOP_ARRAY:34 8
R1_103 TOP_ARRAY:33 TOP_ARRAY:71 0.370368
R1_104 TOP_ARRAY:33 TOP_ARRAY:72 0.227919
R1_105 TOP_ARRAY:34 TOP_ARRAY:53 0.370371
R1_106 TOP_ARRAY:34 TOP_ARRAY:54 0.22792
R1_107 XI37/xC0:T1 TOP_ARRAY:37 7.18539
R1_108 TOP_ARRAY:35 TOP_ARRAY:36 8
R1_109 TOP_ARRAY:35 TOP_ARRAY:72 0.142449
R1_110 TOP_ARRAY:35 TOP_ARRAY:73 0.455838
R1_111 TOP_ARRAY:36 TOP_ARRAY:54 0.14245
R1_112 TOP_ARRAY:36 TOP_ARRAY:55 0.455841
R1_113 XI35/xC0:T1 TOP_ARRAY:55 6.93527
R1_114 XI13/xC0:T1 TOP_ARRAY:54 6.95364
R1_115 TOP_ARRAY:37 TOP_ARRAY:55 0.2849
R1_116 TOP_ARRAY:37 TOP_ARRAY:73 8.2849
R1_117 XI11/xC0:T1 TOP_ARRAY:53 6.93527
R1_118 XI14/xC0:T1 TOP_ARRAY:52 6.95364
R1_119 XI10/xC0:T1 TOP_ARRAY:51 6.93527
R1_120 XI9/xC0:T1 TOP_ARRAY:50 6.93527
R1_121 XI8/xC0:T1 TOP_ARRAY:49 6.95364
R1_122 XI12/xC0:T1 TOP_ARRAY:48 6.93527
R1_123 XI6/xC0:T1 TOP_ARRAY:47 6.95364
R1_124 XI7/xC0:T1 TOP_ARRAY:46 6.95364
R1_125 XI3/xC0:T1 TOP_ARRAY:45 6.93527
R1_126 XI5/xC0:T1 TOP_ARRAY:44 6.95364
R1_127 XI1/xC0:T1 TOP_ARRAY:43 6.93527
R1_128 XI4/xC0:T1 TOP_ARRAY:42 6.93527
R1_129 XI2/xC0:T1 TOP_ARRAY:41 6.95364
R1_130 XI34/xC0:T1 TOP_ARRAY:40 6.93527
R1_131 XI0/xC0:T1 TOP_ARRAY:39 6.95364
R1_132 XI36/xC0:T1 TOP_ARRAY:38 6.93527
R1_133 TOP_ARRAY:38 TOP_ARRAY:56 4.13755
R1_134 TOP_ARRAY:40 TOP_ARRAY:58 8
R1_135 TOP_ARRAY:42 TOP_ARRAY:60 8
R1_136 TOP_ARRAY:43 TOP_ARRAY:61 8
R1_137 TOP_ARRAY:45 TOP_ARRAY:63 8
R1_138 TOP_ARRAY:48 TOP_ARRAY:66 8
R1_139 TOP_ARRAY:50 TOP_ARRAY:68 8
R1_140 TOP_ARRAY:51 TOP_ARRAY:69 8
R1_141 TOP_ARRAY:53 TOP_ARRAY:71 8
R1_142 TOP_ARRAY:55 TOP_ARRAY:73 8
R1_143 TOP_ARRAY:56 TOP_ARRAY:74 5.09829
R1_144 TOP_ARRAY:57 TOP_ARRAY:74 4.5
R1_145 TOP_ARRAY:58 TOP_ARRAY:75 4.5
R1_146 TOP_ARRAY:59 TOP_ARRAY:76 4.5
R1_147 TOP_ARRAY:60 TOP_ARRAY:77 4.5
R1_148 TOP_ARRAY:61 TOP_ARRAY:78 4.5
R1_149 TOP_ARRAY:62 TOP_ARRAY:79 4.5
R1_150 TOP_ARRAY:63 TOP_ARRAY:80 4.5
R1_151 TOP_ARRAY:64 TOP_ARRAY:81 4.5
R1_152 TOP_ARRAY:65 TOP_ARRAY:82 4.5
R1_153 TOP_ARRAY:66 TOP_ARRAY:83 4.5
R1_154 TOP_ARRAY:67 TOP_ARRAY:84 4.5
R1_155 TOP_ARRAY:68 TOP_ARRAY:85 4.5
R1_156 TOP_ARRAY:69 TOP_ARRAY:86 4.5
R1_157 TOP_ARRAY:70 TOP_ARRAY:87 4.5
R1_158 TOP_ARRAY:71 TOP_ARRAY:88 4.5
R1_159 TOP_ARRAY:72 TOP_ARRAY:89 4.5
R1_160 TOP_ARRAY:73 TOP_ARRAY:90 4.5
R1_161 TOP_ARRAY:74 TOP_ARRAY:75 0.598287
R1_162 TOP_ARRAY:75 TOP_ARRAY:76 0.598287
R1_163 TOP_ARRAY:76 TOP_ARRAY:77 0.598287
R1_164 TOP_ARRAY:77 TOP_ARRAY:78 0.598287
R1_165 TOP_ARRAY:78 TOP_ARRAY:79 0.598287
R1_166 TOP_ARRAY:79 TOP_ARRAY:80 0.598287
R1_167 TOP_ARRAY:80 TOP_ARRAY:81 0.598287
R1_168 TOP_ARRAY:81 TOP_ARRAY:82 0.598287
R1_169 TOP_ARRAY:82 TOP_ARRAY:83 0.598287
R1_170 TOP_ARRAY:83 TOP_ARRAY:84 0.598287
R1_171 TOP_ARRAY:84 TOP_ARRAY:85 0.598287
R1_172 TOP_ARRAY:85 TOP_ARRAY:86 0.598287
R1_173 TOP_ARRAY:86 TOP_ARRAY:87 0.598287
R1_174 TOP_ARRAY:87 TOP_ARRAY:88 0.598287
R1_175 TOP_ARRAY:88 TOP_ARRAY:89 0.598287
R1_176 TOP_ARRAY:89 TOP_ARRAY:90 0.598287

*
* Instance Section
*
XXI0/xC0 XI0/xC0:T1 VSS09A cfmom_2t lr=2.29417e-06 nr=3 s=5e-08 spm=6 stm=4 w=1.2e-06
XXI1/xC0 XI1/xC0:T1 XI1/xC0:T2 cfmom_2t lr=2.29417e-06 nr=3 s=5e-08 spm=6 stm=4 w=1.2e-06
XXI2/xC0 XI2/xC0:T1 XI2/xC0:T2 cfmom_2t lr=2.29417e-06 nr=3 s=5e-08 spm=6 stm=4 w=1.2e-06
XXI3/xC0 XI3/xC0:T1 XI3/xC0:T2 cfmom_2t lr=2.29417e-06 nr=3 s=5e-08 spm=6 stm=4 w=1.2e-06
XXI4/xC0 XI4/xC0:T1 XI4/xC0:T2 cfmom_2t lr=2.29417e-06 nr=3 s=5e-08 spm=6 stm=4 w=1.2e-06
XXI5/xC0 XI5/xC0:T1 XI5/xC0:T2 cfmom_2t lr=2.29417e-06 nr=3 s=5e-08 spm=6 stm=4 w=1.2e-06
XXI6/xC0 XI6/xC0:T1 XI6/xC0:T2 cfmom_2t lr=2.29417e-06 nr=3 s=5e-08 spm=6 stm=4 w=1.2e-06
XXI7/xC0 XI7/xC0:T1 XI7/xC0:T2 cfmom_2t lr=2.29417e-06 nr=3 s=5e-08 spm=6 stm=4 w=1.2e-06
XXI8/xC0 XI8/xC0:T1 XI8/xC0:T2 cfmom_2t lr=2.29417e-06 nr=3 s=5e-08 spm=6 stm=4 w=1.2e-06
XXI9/xC0 XI9/xC0:T1 XI9/xC0:T2 cfmom_2t lr=2.29417e-06 nr=3 s=5e-08 spm=6 stm=4 w=1.2e-06
XXI10/xC0 XI10/xC0:T1 XI10/xC0:T2 cfmom_2t lr=2.29417e-06 nr=3 s=5e-08 spm=6 stm=4 w=1.2e-06
XXI11/xC0 XI11/xC0:T1 XI11/xC0:T2 cfmom_2t lr=2.29417e-06 nr=3 s=5e-08 spm=6 stm=4 w=1.2e-06
XXI12/xC0 XI12/xC0:T1 XI12/xC0:T2 cfmom_2t lr=2.29417e-06 nr=3 s=5e-08 spm=6 stm=4 w=1.2e-06
XXI13/xC0 XI13/xC0:T1 XI13/xC0:T2 cfmom_2t lr=2.29417e-06 nr=3 s=5e-08 spm=6 stm=4 w=1.2e-06
XXI14/xC0 XI14/xC0:T1 XI14/xC0:T2 cfmom_2t lr=2.29417e-06 nr=3 s=5e-08 spm=6 stm=4 w=1.2e-06
XXI34/xC0 XI34/xC0:T1 VSS09A cfmom_2t lr=2.29417e-06 nr=3 s=5e-08 spm=6 stm=4 w=1.2e-06
XXI35/xC0 XI35/xC0:T1 VSS09A cfmom_2t lr=2.29417e-06 nr=3 s=5e-08 spm=6 stm=4 w=1.2e-06
XXI36/xC0 XI36/xC0:T1 VSS09A cfmom_2t lr=2.29417e-06 nr=3 s=5e-08 spm=6 stm=4 w=1.2e-06
XXI37/xC0 XI37/xC0:T1 VSS09A cfmom_2t lr=2.29417e-06 nr=3 s=5e-08 spm=6 stm=4 w=1.2e-06

.ENDS

