*
*|DSPF 1.3
*|DESIGN ARRAY_CMP
*|DATE "Tue Nov 24 19:18:03 2020"
*|VENDOR "Synopsys"
*|PROGRAM "StarRC"
*|VERSION "K-2015.06-SP1"
*|DIVIDER /
*|DELIMITER :
**FORMAT SPF
*

** COMMENTS

** OPERATING_TEMPERATURE 25
** GLOBAL_TEMPERATURE 25
** TCAD_GRD_FILE /raidj/user/t28/t28u25/etron/ADC_SAR4BIT/runLPE/cln28hpc+_1p09m+ut-alrdl_6x2z_typical.nxtgrd
**   TCAD_TIME_STAMP Thu Jun 25 12:48:01 2015
**   TCADGRD_VERSION 80
** HALF_NODE_SCALE_FACTOR 0.9


.SUBCKT ARRAY_CMP TOP_ARRAY SL3B SL3A SL2A SL2B SL1A SL1B

*|GROUND_NET 0

*|NET net35 0.00135815PF
*|I (MM20:DRN MM20 DRN B 0 3.80744 -0.754889)
*|I (MM5:DRN MM5 DRN B 0 3.80744 -0.329889)
*|I (XI5/xC0:T2 XI5/xC0 T2 B 0 3.75989 1.34489)
Cg19_1 XI5/xC0:T2 0 4.64487e-18
Cg19_2 net35:3 0 2.23622e-18
Cg19_3 net35:5 0 1.4231e-18
Cg19_4 net35:6 0 9.03231e-19
Cg19_5 net35:7 0 2.73902e-16
Cg19_6 net35:9 0 2.59259e-18
R19_1 MM20:DRN net35:4 36.2567
R19_2 MM20:DRN net35:5 35.9358
R19_3 MM20:DRN net35:9 18.0478
R19_4 MM5:DRN net35:1 44.096
R19_5 MM5:DRN net35:2 43.7058
R19_6 MM5:DRN net35:8 21.95
R19_7 XI5/xC0:T2 net35:7 43.5951
R19_8 net35:1 net35:3 112.202
R19_9 net35:1 net35:8 31.0583
R19_10 net35:2 net35:3 112.002
R19_11 net35:2 net35:8 31.0583
R19_12 net35:3 net35:8 11.25
R19_13 net35:4 net35:6 92.2551
R19_14 net35:4 net35:9 25.5368
R19_15 net35:5 net35:6 92.0906
R19_16 net35:5 net35:9 25.5368
R19_17 net35:6 net35:9 9.24999
R19_18 net35:7 net35:9 82.3002
R19_19 net35:7 net35:8 90

*|NET net31 0.00135559PF
*|I (MM19:DRN MM19 DRN B 0 3.55244 -0.754889)
*|I (MM4:DRN MM4 DRN B 0 3.55244 -0.329889)
*|I (XI4/xC0:T2 XI4/xC0 T2 B 0 3.54989 1.34489)
C15_7 MM19:DRN net35:5 5.15717e-18
Cg15_8 MM19:DRN 0 2.11714e-18
C15_9 MM4:DRN net35:2 6.16168e-18
Cg15_10 MM4:DRN 0 2.05165e-18
C15_11 XI4/xC0:T2 net35:7 1.20857e-18
C15_12 XI4/xC0:T2 XI5/xC0:T2 1.23274e-16
Cg15_13 XI4/xC0:T2 0 8.77811e-18
C15_14 net31:7 net35:7 3.2306e-17
C15_15 net31:7 XI5/xC0:T2 5.4988e-17
Cg15_16 net31:7 0 9.17186e-17
Cg15_17 net31:9 0 2.48491e-18
R15_20 MM19:DRN net31:5 36.1741
R15_21 MM19:DRN net31:6 35.854
R15_22 MM19:DRN net31:9 18.0067
R15_23 MM4:DRN net31:2 43.9956
R15_24 MM4:DRN net31:3 43.6062
R15_25 MM4:DRN net31:8 21.9
R15_26 XI4/xC0:T2 net31:7 43.4883
R15_27 net31:1 net31:2 113.002
R15_28 net31:1 net31:3 112.802
R15_29 net31:1 net31:8 11.25
R15_30 net31:2 net31:8 31.0583
R15_31 net31:3 net31:8 31.0583
R15_32 net31:4 net31:5 92.9129
R15_33 net31:4 net31:6 92.7484
R15_34 net31:4 net31:9 9.24999
R15_35 net31:5 net31:9 25.5368
R15_36 net31:6 net31:9 25.5368
R15_37 net31:7 net31:9 82.3085
R15_38 net31:7 net31:8 90

*|NET net39 0.0013552PF
*|I (MM21:DRN MM21 DRN B 0 3.38744 -0.754889)
*|I (MM6:DRN MM6 DRN B 0 3.38744 -0.329889)
*|I (XI6/xC0:T2 XI6/xC0 T2 B 0 3.33989 1.34489)
C24_18 XI6/xC0:T2 net31:7 2.98175e-19
C24_19 XI6/xC0:T2 XI4/xC0:T2 1.4695e-16
Cg24_20 XI6/xC0:T2 0 5.36154e-18
C24_21 net39:2 MM4:DRN 1.83723e-19
Cg24_22 net39:3 0 2.05249e-18
C24_23 net39:5 MM19:DRN 2.09192e-19
Cg24_24 net39:5 0 1.53466e-18
Cg24_25 net39:6 0 9.20537e-19
C24_26 net39:7 net31:7 8.4576e-18
C24_27 net39:7 XI4/xC0:T2 2.57388e-17
Cg24_28 net39:7 0 9.44027e-17
Cg24_29 net39:9 0 2.49849e-18
R24_39 MM21:DRN net39:4 36.2567
R24_40 MM21:DRN net39:5 35.9358
R24_41 MM21:DRN net39:9 18.0478
R24_42 MM6:DRN net39:1 44.096
R24_43 MM6:DRN net39:2 43.7058
R24_44 MM6:DRN net39:8 21.95
R24_45 XI6/xC0:T2 net39:7 43.5261
R24_46 net39:1 net39:3 112.202
R24_47 net39:1 net39:8 31.0583
R24_48 net39:2 net39:3 112.002
R24_49 net39:2 net39:8 31.0583
R24_50 net39:3 net39:8 11.25
R24_51 net39:4 net39:6 92.2551
R24_52 net39:4 net39:9 25.5368
R24_53 net39:5 net39:6 92.0906
R24_54 net39:5 net39:9 25.5368
R24_55 net39:6 net39:9 9.24999
R24_56 net39:7 net39:9 82.3085
R24_57 net39:7 net39:8 90

*|NET net020 0.00135658PF
*|I (MM17:DRN MM17 DRN B 0 3.13244 -0.754889)
*|I (MM2:DRN MM2 DRN B 0 3.13244 -0.329889)
*|I (XI2/xC0:T2 XI2/xC0 T2 B 0 3.12989 1.34489)
C14_30 MM17:DRN net39:5 5.15717e-18
Cg14_31 MM17:DRN 0 2.11714e-18
C14_32 MM2:DRN net39:2 6.16168e-18
Cg14_33 MM2:DRN 0 2.05165e-18
C14_34 XI2/xC0:T2 net39:7 1.20297e-16
C14_35 XI2/xC0:T2 XI6/xC0:T2 2.95193e-17
Cg14_36 XI2/xC0:T2 0 5.6555e-18
C14_37 net020:7 net39:7 3.26011e-17
C14_38 net020:7 XI6/xC0:T2 2.96957e-17
Cg14_39 net020:7 0 9.53766e-17
Cg14_40 net020:9 0 2.51431e-18
R14_58 MM17:DRN net020:5 36.1741
R14_59 MM17:DRN net020:6 35.854
R14_60 MM17:DRN net020:9 18.0067
R14_61 MM2:DRN net020:2 43.9956
R14_62 MM2:DRN net020:3 43.6062
R14_63 MM2:DRN net020:8 21.9
R14_64 XI2/xC0:T2 net020:7 43.4883
R14_65 net020:1 net020:2 113.002
R14_66 net020:1 net020:3 112.802
R14_67 net020:1 net020:8 11.25
R14_68 net020:2 net020:8 31.0583
R14_69 net020:3 net020:8 31.0583
R14_70 net020:4 net020:5 92.9129
R14_71 net020:4 net020:6 92.7484
R14_72 net020:4 net020:9 9.24999
R14_73 net020:5 net020:9 25.5368
R14_74 net020:6 net020:9 25.5368
R14_75 net020:7 net020:9 82.3085
R14_76 net020:7 net020:8 90

*|NET net015 0.00135545PF
*|I (MM16:DRN MM16 DRN B 0 2.96744 -0.754889)
*|I (MM1:DRN MM1 DRN B 0 2.96744 -0.329889)
*|I (XI1/xC0:T2 XI1/xC0 T2 B 0 2.91989 1.34489)
C23_41 XI1/xC0:T2 net020:7 2.98175e-19
C23_42 XI1/xC0:T2 XI2/xC0:T2 1.4695e-16
Cg23_43 XI1/xC0:T2 0 5.41287e-17
C23_44 net015:2 MM2:DRN 1.83723e-19
Cg23_45 net015:3 0 2.05249e-18
C23_46 net015:5 MM17:DRN 2.09192e-19
Cg23_47 net015:5 0 1.53466e-18
Cg23_48 net015:6 0 9.20537e-19
C23_49 net015:7 net020:7 8.4576e-18
C23_50 net015:7 XI2/xC0:T2 2.57405e-17
Cg23_51 net015:7 0 4.58754e-17
Cg23_52 net015:9 0 2.50522e-18
R23_77 MM16:DRN net015:4 36.2567
R23_78 MM16:DRN net015:5 35.9358
R23_79 MM16:DRN net015:9 18.0478
R23_80 MM1:DRN net015:1 44.096
R23_81 MM1:DRN net015:2 43.7058
R23_82 MM1:DRN net015:8 21.95
R23_83 XI1/xC0:T2 net015:7 43.5261
R23_84 net015:1 net015:3 112.202
R23_85 net015:1 net015:8 31.0583
R23_86 net015:2 net015:3 112.002
R23_87 net015:2 net015:8 31.0583
R23_88 net015:3 net015:8 11.25
R23_89 net015:4 net015:6 92.2551
R23_90 net015:4 net015:9 25.5368
R23_91 net015:5 net015:6 92.0906
R23_92 net015:5 net015:9 25.5368
R23_93 net015:6 net015:9 9.24999
R23_94 net015:7 net015:9 82.3085
R23_95 net015:7 net015:8 90

*|NET net024 0.00135676PF
*|I (MM18:DRN MM18 DRN B 0 2.71244 -0.754889)
*|I (MM3:DRN MM3 DRN B 0 2.71244 -0.329889)
*|I (XI3/xC0:T2 XI3/xC0 T2 B 0 2.70989 1.34489)
C13_53 MM18:DRN net015:5 5.15717e-18
Cg13_54 MM18:DRN 0 2.4552e-18
C13_55 MM3:DRN net015:2 6.16168e-18
Cg13_56 MM3:DRN 0 2.05165e-18
C13_57 XI3/xC0:T2 net015:7 6.12578e-17
C13_58 XI3/xC0:T2 XI1/xC0:T2 8.85583e-17
Cg13_59 XI3/xC0:T2 0 9.09059e-18
C13_60 net024:7 net015:7 3.26011e-17
C13_61 net024:7 XI1/xC0:T2 2.96957e-17
Cg13_62 net024:7 0 9.26271e-17
Cg13_63 net024:9 0 2.51431e-18
R13_96 MM18:DRN net024:5 36.1741
R13_97 MM18:DRN net024:6 35.854
R13_98 MM18:DRN net024:9 18.0067
R13_99 MM3:DRN net024:2 43.9956
R13_100 MM3:DRN net024:3 43.6062
R13_101 MM3:DRN net024:8 21.9
R13_102 XI3/xC0:T2 net024:7 43.4883
R13_103 net024:1 net024:2 113.002
R13_104 net024:1 net024:3 112.802
R13_105 net024:1 net024:8 11.25
R13_106 net024:2 net024:8 31.0583
R13_107 net024:3 net024:8 31.0583
R13_108 net024:4 net024:5 92.9129
R13_109 net024:4 net024:6 92.7484
R13_110 net024:4 net024:9 9.24999
R13_111 net024:5 net024:9 25.5368
R13_112 net024:6 net024:9 25.5368
R13_113 net024:7 net024:9 82.3085
R13_114 net024:7 net024:8 90

*|NET net47 0.00135545PF
*|I (MM23:DRN MM23 DRN B 0 2.54744 -0.754889)
*|I (MM8:DRN MM8 DRN B 0 2.54744 -0.329889)
*|I (XI8/xC0:T2 XI8/xC0 T2 B 0 2.49989 1.34489)
C22_64 XI8/xC0:T2 net024:7 2.98175e-19
C22_65 XI8/xC0:T2 XI3/xC0:T2 8.85583e-17
Cg22_66 XI8/xC0:T2 0 5.24712e-17
C22_67 net47:2 MM3:DRN 1.83723e-19
Cg22_68 net47:3 0 2.05249e-18
C22_69 net47:5 MM18:DRN 2.09192e-19
Cg22_70 net47:5 0 1.53466e-18
Cg22_71 net47:6 0 9.20537e-19
C22_72 net47:7 net024:7 8.4576e-18
C22_73 net47:7 XI3/xC0:T2 8.41323e-17
Cg22_74 net47:7 0 4.75329e-17
Cg22_75 net47:9 0 2.50522e-18
R22_115 MM23:DRN net47:4 36.2567
R22_116 MM23:DRN net47:5 35.9358
R22_117 MM23:DRN net47:9 18.0478
R22_118 MM8:DRN net47:1 44.096
R22_119 MM8:DRN net47:2 43.7058
R22_120 MM8:DRN net47:8 21.95
R22_121 XI8/xC0:T2 net47:7 43.5261
R22_122 net47:1 net47:3 112.202
R22_123 net47:1 net47:8 31.0583
R22_124 net47:2 net47:3 112.002
R22_125 net47:2 net47:8 31.0583
R22_126 net47:3 net47:8 11.25
R22_127 net47:4 net47:6 92.2551
R22_128 net47:4 net47:9 25.5368
R22_129 net47:5 net47:6 92.0906
R22_130 net47:5 net47:9 25.5368
R22_131 net47:6 net47:9 9.24999
R22_132 net47:7 net47:9 82.3085
R22_133 net47:7 net47:8 90

*|NET net43 0.00135684PF
*|I (MM22:DRN MM22 DRN B 0 2.29244 -0.754889)
*|I (MM7:DRN MM7 DRN B 0 2.29244 -0.329889)
*|I (XI7/xC0:T2 XI7/xC0 T2 B 0 2.28989 1.34489)
C12_76 MM22:DRN net47:5 5.15717e-18
Cg12_77 MM22:DRN 0 2.4552e-18
C12_78 MM7:DRN net47:2 6.16168e-18
Cg12_79 MM7:DRN 0 2.05165e-18
C12_80 XI7/xC0:T2 XI8/xC0:T2 1.48608e-16
C12_81 XI7/xC0:T2 net47:7 1.20857e-18
Cg12_82 XI7/xC0:T2 0 8.99385e-18
C12_83 net43:7 XI8/xC0:T2 2.96957e-17
C12_84 net43:7 net47:7 3.26011e-17
Cg12_85 net43:7 0 9.2562e-17
Cg12_86 net43:9 0 2.51558e-18
R12_134 MM22:DRN net43:5 36.1741
R12_135 MM22:DRN net43:6 35.854
R12_136 MM22:DRN net43:9 18.0067
R12_137 MM7:DRN net43:2 43.9956
R12_138 MM7:DRN net43:3 43.6062
R12_139 MM7:DRN net43:8 21.9
R12_140 XI7/xC0:T2 net43:7 43.4883
R12_141 net43:1 net43:2 113.002
R12_142 net43:1 net43:3 112.802
R12_143 net43:1 net43:8 11.25
R12_144 net43:2 net43:8 31.0583
R12_145 net43:3 net43:8 31.0583
R12_146 net43:4 net43:5 92.9129
R12_147 net43:4 net43:6 92.7484
R12_148 net43:4 net43:9 9.24999
R12_149 net43:5 net43:9 25.5368
R12_150 net43:6 net43:9 25.5368
R12_151 net43:7 net43:9 82.3085
R12_152 net43:7 net43:8 90

*|NET net060 0.00134417PF
*|I (MM27:DRN MM27 DRN B 0 2.12744 -0.754889)
*|I (MM12:DRN MM12 DRN B 0 2.12744 -0.329889)
*|I (XI12/xC0:T2 XI12/xC0 T2 B 0 2.07989 1.34489)
C21_87 XI12/xC0:T2 XI7/xC0:T2 1.72622e-16
C21_88 XI12/xC0:T2 net43:7 2.98175e-19
Cg21_89 XI12/xC0:T2 0 8.70706e-18
C21_90 net060:2 MM7:DRN 1.83723e-19
Cg21_91 net060:3 0 1.99848e-18
C21_92 net060:5 MM22:DRN 2.09192e-19
Cg21_93 net060:5 0 1.87102e-18
Cg21_94 net060:6 0 5.19144e-19
C21_95 net060:7 XI7/xC0:T2 1.91738e-19
C21_96 net060:7 net43:7 8.56709e-18
Cg21_97 net060:7 0 9.30594e-17
Cg21_98 net060:9 0 1.99126e-18
R21_153 MM27:DRN net060:4 36.2567
R21_154 MM27:DRN net060:5 35.9358
R21_155 MM27:DRN net060:9 18.0478
R21_156 MM12:DRN net060:1 44.096
R21_157 MM12:DRN net060:2 43.7058
R21_158 MM12:DRN net060:8 21.95
R21_159 XI12/xC0:T2 net060:7 43.4982
R21_160 net060:1 net060:3 112.202
R21_161 net060:1 net060:8 31.0583
R21_162 net060:2 net060:3 112.002
R21_163 net060:2 net060:8 31.0583
R21_164 net060:3 net060:8 11.25
R21_165 net060:4 net060:6 92.2551
R21_166 net060:4 net060:9 25.5368
R21_167 net060:5 net060:6 92.0906
R21_168 net060:5 net060:9 25.5368
R21_169 net060:6 net060:9 9.24999
R21_170 net060:7 net060:8 90
R21_171 net060:7 net060:9 81.9329

*|NET net068 0.00134354PF
*|I (MM29:DRN MM29 DRN B 0 1.82244 -0.754889)
*|I (MM14:DRN MM14 DRN B 0 1.82244 -0.329889)
*|I (XI14/xC0:T2 XI14/xC0 T2 B 0 1.86989 1.34489)
C11_99 MM29:DRN net060:5 3.23151e-18
Cg11_100 MM29:DRN 0 2.3901e-18
C11_101 MM14:DRN net060:2 3.84967e-18
Cg11_102 MM14:DRN 0 1.99546e-18
C11_103 XI14/xC0:T2 net060:7 2.87536e-17
C11_104 XI14/xC0:T2 XI12/xC0:T2 1.46998e-16
Cg11_105 XI14/xC0:T2 0 8.6743e-18
C11_106 net068:7 net060:7 2.64329e-17
C11_107 net068:7 XI12/xC0:T2 1.38286e-18
Cg11_108 net068:7 0 9.34684e-17
Cg11_109 net068:9 0 1.97693e-18
R11_172 MM29:DRN net068:5 36.1741
R11_173 MM29:DRN net068:6 35.854
R11_174 MM29:DRN net068:9 18.0067
R11_175 MM14:DRN net068:2 43.9956
R11_176 MM14:DRN net068:3 43.6062
R11_177 MM14:DRN net068:8 21.9
R11_178 XI14/xC0:T2 net068:7 43.4982
R11_179 net068:1 net068:2 113.002
R11_180 net068:1 net068:3 112.802
R11_181 net068:1 net068:8 11.25
R11_182 net068:2 net068:8 31.0583
R11_183 net068:3 net068:8 31.0583
R11_184 net068:4 net068:5 92.9129
R11_185 net068:4 net068:6 92.7484
R11_186 net068:4 net068:9 9.24999
R11_187 net068:5 net068:9 25.5368
R11_188 net068:6 net068:9 25.5368
R11_189 net068:7 net068:8 90
R11_190 net068:7 net068:9 81.9329

*|NET net056 0.00135684PF
*|I (MM26:DRN MM26 DRN B 0 1.65744 -0.754889)
*|I (MM11:DRN MM11 DRN B 0 1.65744 -0.329889)
*|I (XI11/xC0:T2 XI11/xC0 T2 B 0 1.65989 1.34489)
C20_110 XI11/xC0:T2 net068:7 2.8562e-17
C20_111 XI11/xC0:T2 XI14/xC0:T2 1.44252e-16
Cg20_112 XI11/xC0:T2 0 1.39693e-17
C20_113 net056:2 MM14:DRN 1.83723e-19
Cg20_114 net056:3 0 2.05165e-18
C20_115 net056:5 MM29:DRN 2.09192e-19
Cg20_116 net056:5 0 1.21772e-18
Cg20_117 net056:6 0 8.99168e-19
C20_118 net056:7 net068:7 8.56709e-18
C20_119 net056:7 XI14/xC0:T2 2.98175e-19
Cg20_120 net056:7 0 8.67247e-17
Cg20_121 net056:9 0 2.52264e-18
R20_191 MM26:DRN net056:4 36.2567
R20_192 MM26:DRN net056:5 35.9358
R20_193 MM26:DRN net056:9 18.0478
R20_194 MM11:DRN net056:1 44.096
R20_195 MM11:DRN net056:2 43.7058
R20_196 MM11:DRN net056:8 21.95
R20_197 XI11/xC0:T2 net056:7 43.4883
R20_198 net056:1 net056:3 112.202
R20_199 net056:1 net056:8 31.0583
R20_200 net056:2 net056:3 112.002
R20_201 net056:2 net056:8 31.0583
R20_202 net056:3 net056:8 11.25
R20_203 net056:4 net056:6 92.2551
R20_204 net056:4 net056:9 25.5368
R20_205 net056:5 net056:6 92.0906
R20_206 net056:5 net056:9 25.5368
R20_207 net056:6 net056:9 9.24999
R20_208 net056:7 net056:8 90
R20_209 net056:7 net056:9 82.3085

*|NET net51 0.00135519PF
*|I (MM24:DRN MM24 DRN B 0 1.40244 -0.754889)
*|I (MM9:DRN MM9 DRN B 0 1.40244 -0.329889)
*|I (XI9/xC0:T2 XI9/xC0 T2 B 0 1.44989 1.34489)
C18_122 MM24:DRN net056:5 5.15717e-18
Cg18_123 MM24:DRN 0 2.45494e-18
C18_124 MM9:DRN net056:2 6.16168e-18
Cg18_125 MM9:DRN 0 2.05249e-18
C18_126 XI9/xC0:T2 net056:7 3.13049e-17
C18_127 XI9/xC0:T2 XI11/xC0:T2 1.34889e-16
Cg18_128 XI9/xC0:T2 0 1.85371e-17
C18_129 net51:7 net056:7 4.59186e-17
Cg18_130 net51:7 0 8.16214e-17
Cg18_131 net51:9 0 2.49812e-18
R18_210 MM24:DRN net51:5 36.1741
R18_211 MM24:DRN net51:6 35.854
R18_212 MM24:DRN net51:9 18.0067
R18_213 MM9:DRN net51:2 43.9956
R18_214 MM9:DRN net51:3 43.6062
R18_215 MM9:DRN net51:8 21.9
R18_216 XI9/xC0:T2 net51:7 43.5246
R18_217 net51:1 net51:2 113.002
R18_218 net51:1 net51:3 112.802
R18_219 net51:1 net51:8 11.25
R18_220 net51:2 net51:8 31.0583
R18_221 net51:3 net51:8 31.0583
R18_222 net51:4 net51:5 92.9129
R18_223 net51:4 net51:6 92.7484
R18_224 net51:4 net51:9 9.24999
R18_225 net51:5 net51:9 25.5368
R18_226 net51:6 net51:9 25.5368
R18_227 net51:7 net51:8 90
R18_228 net51:7 net51:9 82.3085

*|NET net064 0.00135557PF
*|I (MM28:DRN MM28 DRN B 0 1.23744 -0.754889)
*|I (MM13:DRN MM13 DRN B 0 1.23744 -0.329889)
*|I (XI13/xC0:T2 XI13/xC0 T2 B 0 1.23989 1.34489)
C17_132 XI13/xC0:T2 XI9/xC0:T2 1.34889e-16
C17_133 XI13/xC0:T2 net51:7 2.57388e-17
Cg17_134 XI13/xC0:T2 0 1.26395e-17
C17_135 net064:3 MM9:DRN 1.83723e-19
Cg17_136 net064:3 0 2.05165e-18
C17_137 net064:5 MM24:DRN 2.09192e-19
Cg17_138 net064:5 0 1.22063e-18
Cg17_139 net064:6 0 8.96261e-19
C17_140 net064:7 net51:7 2.08164e-17
Cg17_141 net064:7 0 8.6489e-17
Cg17_142 net064:9 0 2.50127e-18
R17_229 MM28:DRN net064:4 36.2567
R17_230 MM28:DRN net064:5 35.9358
R17_231 MM28:DRN net064:9 18.0478
R17_232 MM13:DRN net064:1 44.096
R17_233 MM13:DRN net064:2 43.7058
R17_234 MM13:DRN net064:8 21.95
R17_235 XI13/xC0:T2 net064:7 43.4883
R17_236 net064:1 net064:3 112.202
R17_237 net064:1 net064:8 31.0583
R17_238 net064:2 net064:3 112.002
R17_239 net064:2 net064:8 31.0583
R17_240 net064:3 net064:8 11.25
R17_241 net064:4 net064:6 92.2551
R17_242 net064:4 net064:9 25.5368
R17_243 net064:5 net064:6 92.0906
R17_244 net064:5 net064:9 25.5368
R17_245 net064:6 net064:9 9.24999
R17_246 net064:7 net064:8 90
R17_247 net064:7 net064:9 82.3085

*|NET net55 0.00134713PF
*|I (MM25:DRN MM25 DRN B 0 0.982444 -0.754889)
*|I (MM10:DRN MM10 DRN B 0 0.982444 -0.329889)
*|I (XI10/xC0:T2 XI10/xC0 T2 B 0 1.02989 1.34489)
C16_143 MM25:DRN net064:5 5.15717e-18
Cg16_144 MM25:DRN 0 2.32608e-18
C16_145 MM10:DRN net064:2 6.16168e-18
Cg16_146 MM10:DRN 0 2.23622e-18
C16_147 XI10/xC0:T2 XI13/xC0:T2 1.46998e-16
C16_148 XI10/xC0:T2 net064:7 3.16722e-17
Cg16_149 XI10/xC0:T2 0 9.79463e-18
C16_150 net55:7 XI13/xC0:T2 1.20857e-18
C16_151 net55:7 net064:7 3.27079e-17
Cg16_152 net55:7 0 2.58889e-16
Cg16_153 net55:9 0 2.47286e-18
R16_248 MM25:DRN net55:5 36.1741
R16_249 MM25:DRN net55:6 35.854
R16_250 MM25:DRN net55:9 18.0067
R16_251 MM10:DRN net55:2 43.9956
R16_252 MM10:DRN net55:3 43.6062
R16_253 MM10:DRN net55:8 21.9
R16_254 XI10/xC0:T2 net55:7 43.4435
R16_255 net55:1 net55:2 113.002
R16_256 net55:1 net55:3 112.802
R16_257 net55:1 net55:8 11.25
R16_258 net55:2 net55:8 31.0583
R16_259 net55:3 net55:8 31.0583
R16_260 net55:4 net55:5 92.9129
R16_261 net55:4 net55:6 92.7484
R16_262 net55:4 net55:9 9.24999
R16_263 net55:5 net55:9 25.5368
R16_264 net55:6 net55:9 25.5368
R16_265 net55:7 net55:8 90
R16_266 net55:7 net55:9 82.3002

*|NET TOP_ARRAY 0.0167572PF
*|P (TOP_ARRAY O 0 0.607889 2.59989)
*|I (XI0/xC0:T1 XI0/xC0 T1 B 0 0.522444 1.66989)
*|I (XI34/xC0:T1 XI34/xC0 T1 B 0 0.732444 1.66989)
*|I (XI10/xC0:T1 XI10/xC0 T1 B 0 0.942444 1.66989)
*|I (XI13/xC0:T1 XI13/xC0 T1 B 0 1.15244 1.66989)
*|I (XI9/xC0:T1 XI9/xC0 T1 B 0 1.36244 1.66989)
*|I (XI11/xC0:T1 XI11/xC0 T1 B 0 1.57244 1.66989)
*|I (XI14/xC0:T1 XI14/xC0 T1 B 0 1.78244 1.66989)
*|I (XI12/xC0:T1 XI12/xC0 T1 B 0 1.99244 1.66989)
*|I (XI7/xC0:T1 XI7/xC0 T1 B 0 2.20244 1.66989)
*|I (XI8/xC0:T1 XI8/xC0 T1 B 0 2.41244 1.66989)
*|I (XI3/xC0:T1 XI3/xC0 T1 B 0 2.62244 1.66989)
*|I (XI1/xC0:T1 XI1/xC0 T1 B 0 2.83244 1.66989)
*|I (XI2/xC0:T1 XI2/xC0 T1 B 0 3.04244 1.66989)
*|I (XI6/xC0:T1 XI6/xC0 T1 B 0 3.25244 1.66989)
*|I (XI4/xC0:T1 XI4/xC0 T1 B 0 3.46244 1.66989)
*|I (XI5/xC0:T1 XI5/xC0 T1 B 0 3.67244 1.66989)
*|I (XI35/xC0:T1 XI35/xC0 T1 B 0 3.88244 1.66989)
*|I (XI36/xC0:T1 XI36/xC0 T1 B 0 4.09244 1.66989)
*|I (XI37/xC0:T1 XI37/xC0 T1 B 0 4.30244 1.66989)
Cg3_154 TOP_ARRAY 0 4.61834e-17
Cg3_155 XI0/xC0:T1 0 1.88491e-17
C3_156 TOP_ARRAY:37 XI8/xC0:T2 4.17417e-18
C3_157 TOP_ARRAY:37 XI7/xC0:T2 4.17417e-18
C3_158 TOP_ARRAY:37 XI12/xC0:T2 4.17417e-18
C3_159 TOP_ARRAY:37 XI14/xC0:T2 4.16057e-18
C3_160 TOP_ARRAY:37 XI11/xC0:T2 4.17417e-18
C3_161 TOP_ARRAY:37 XI9/xC0:T2 4.17417e-18
C3_162 TOP_ARRAY:37 XI13/xC0:T2 4.17417e-18
C3_163 TOP_ARRAY:37 XI10/xC0:T2 4.17417e-18
C3_164 TOP_ARRAY:37 XI5/xC0:T2 4.17417e-18
C3_165 TOP_ARRAY:37 XI4/xC0:T2 4.17417e-18
C3_166 TOP_ARRAY:37 XI6/xC0:T2 4.17417e-18
C3_167 TOP_ARRAY:37 XI2/xC0:T2 4.17417e-18
C3_168 TOP_ARRAY:37 XI1/xC0:T2 4.17417e-18
C3_169 TOP_ARRAY:37 XI3/xC0:T2 4.17417e-18
Cg3_170 TOP_ARRAY:37 0 3.68435e-16
Cg3_171 TOP_ARRAY:38 0 5.43167e-16
Cg3_172 TOP_ARRAY:39 0 2.66474e-16
C3_173 TOP_ARRAY:40 XI5/xC0:T2 1.3167e-16
Cg3_174 TOP_ARRAY:40 0 1.34804e-16
C3_175 TOP_ARRAY:41 XI4/xC0:T2 1.3167e-16
C3_176 TOP_ARRAY:41 XI5/xC0:T2 1.3167e-16
Cg3_177 TOP_ARRAY:41 0 3.13359e-18
C3_178 TOP_ARRAY:42 XI6/xC0:T2 1.3167e-16
C3_179 TOP_ARRAY:42 XI4/xC0:T2 1.3167e-16
Cg3_180 TOP_ARRAY:42 0 3.13359e-18
C3_181 TOP_ARRAY:43 XI2/xC0:T2 1.3167e-16
C3_182 TOP_ARRAY:43 XI6/xC0:T2 1.3167e-16
Cg3_183 TOP_ARRAY:43 0 3.13359e-18
C3_184 TOP_ARRAY:44 XI1/xC0:T2 1.3167e-16
C3_185 TOP_ARRAY:44 XI2/xC0:T2 1.3167e-16
Cg3_186 TOP_ARRAY:44 0 3.13359e-18
C3_187 TOP_ARRAY:45 XI3/xC0:T2 1.3167e-16
C3_188 TOP_ARRAY:45 XI1/xC0:T2 1.3167e-16
Cg3_189 TOP_ARRAY:45 0 3.13359e-18
C3_190 TOP_ARRAY:46 XI3/xC0:T2 1.3167e-16
C3_191 TOP_ARRAY:46 XI8/xC0:T2 1.3167e-16
Cg3_192 TOP_ARRAY:46 0 3.13359e-18
C3_193 TOP_ARRAY:47 XI7/xC0:T2 1.3167e-16
C3_194 TOP_ARRAY:47 XI8/xC0:T2 1.3167e-16
Cg3_195 TOP_ARRAY:47 0 3.13359e-18
C3_196 TOP_ARRAY:48 XI12/xC0:T2 1.3167e-16
C3_197 TOP_ARRAY:48 XI7/xC0:T2 1.3167e-16
Cg3_198 TOP_ARRAY:48 0 3.13359e-18
C3_199 TOP_ARRAY:49 XI14/xC0:T2 1.3167e-16
C3_200 TOP_ARRAY:49 XI12/xC0:T2 1.3167e-16
Cg3_201 TOP_ARRAY:49 0 3.13359e-18
C3_202 TOP_ARRAY:50 XI11/xC0:T2 1.3167e-16
C3_203 TOP_ARRAY:50 XI14/xC0:T2 1.3167e-16
Cg3_204 TOP_ARRAY:50 0 3.13359e-18
C3_205 TOP_ARRAY:51 XI9/xC0:T2 1.3167e-16
C3_206 TOP_ARRAY:51 XI11/xC0:T2 1.3167e-16
Cg3_207 TOP_ARRAY:51 0 3.13359e-18
C3_208 TOP_ARRAY:52 XI13/xC0:T2 1.3167e-16
C3_209 TOP_ARRAY:52 XI9/xC0:T2 1.3167e-16
Cg3_210 TOP_ARRAY:52 0 3.13359e-18
C3_211 TOP_ARRAY:53 XI10/xC0:T2 1.3167e-16
C3_212 TOP_ARRAY:53 XI13/xC0:T2 1.3167e-16
Cg3_213 TOP_ARRAY:53 0 3.13359e-18
C3_214 TOP_ARRAY:54 XI10/xC0:T2 1.3167e-16
Cg3_215 TOP_ARRAY:54 0 1.34804e-16
Cg3_216 TOP_ARRAY:55 0 2.66676e-16
Cg3_217 TOP_ARRAY:56 0 6.09429e-16
Cg3_218 TOP_ARRAY:57 0 2.7051e-16
C3_219 TOP_ARRAY:58 XI5/xC0:T2 1.27302e-17
C3_220 TOP_ARRAY:58 net35:7 1.21124e-16
Cg3_221 TOP_ARRAY:58 0 1.36655e-16
C3_222 TOP_ARRAY:59 XI4/xC0:T2 1.27302e-17
C3_223 TOP_ARRAY:59 XI5/xC0:T2 1.33855e-16
C3_224 TOP_ARRAY:59 net31:7 1.21124e-16
Cg3_225 TOP_ARRAY:59 0 2.80059e-18
C3_226 TOP_ARRAY:60 XI6/xC0:T2 1.1257e-16
C3_227 TOP_ARRAY:60 XI4/xC0:T2 1.25936e-17
C3_228 TOP_ARRAY:60 net31:7 1.21261e-16
C3_229 TOP_ARRAY:60 net39:7 2.12851e-17
Cg3_230 TOP_ARRAY:60 0 2.80059e-18
C3_231 TOP_ARRAY:61 XI2/xC0:T2 1.25936e-17
C3_232 TOP_ARRAY:61 XI6/xC0:T2 1.33855e-16
C3_233 TOP_ARRAY:61 net020:7 1.21261e-16
Cg3_234 TOP_ARRAY:61 0 2.80059e-18
C3_235 TOP_ARRAY:62 XI1/xC0:T2 1.33855e-16
C3_236 TOP_ARRAY:62 XI2/xC0:T2 1.33855e-16
Cg3_237 TOP_ARRAY:62 0 2.80059e-18
C3_238 TOP_ARRAY:63 XI3/xC0:T2 1.25936e-17
C3_239 TOP_ARRAY:63 XI1/xC0:T2 1.33855e-16
C3_240 TOP_ARRAY:63 net024:7 1.21261e-16
Cg3_241 TOP_ARRAY:63 0 2.80059e-18
C3_242 TOP_ARRAY:64 XI3/xC0:T2 1.33855e-16
C3_243 TOP_ARRAY:64 XI8/xC0:T2 1.33855e-16
Cg3_244 TOP_ARRAY:64 0 2.80059e-18
C3_245 TOP_ARRAY:65 net43:7 1.21261e-16
C3_246 TOP_ARRAY:65 XI7/xC0:T2 1.25936e-17
C3_247 TOP_ARRAY:65 XI8/xC0:T2 1.33855e-16
Cg3_248 TOP_ARRAY:65 0 2.80059e-18
C3_249 TOP_ARRAY:66 XI12/xC0:T2 1.25936e-17
C3_250 TOP_ARRAY:66 net060:7 1.21261e-16
C3_251 TOP_ARRAY:66 XI7/xC0:T2 1.33855e-16
Cg3_252 TOP_ARRAY:66 0 2.80059e-18
C3_253 TOP_ARRAY:67 XI14/xC0:T2 1.25936e-17
C3_254 TOP_ARRAY:67 XI12/xC0:T2 1.33855e-16
C3_255 TOP_ARRAY:67 net068:7 1.21261e-16
Cg3_256 TOP_ARRAY:67 0 2.80059e-18
C3_257 TOP_ARRAY:68 XI11/xC0:T2 1.33855e-16
C3_258 TOP_ARRAY:68 XI14/xC0:T2 1.33855e-16
Cg3_259 TOP_ARRAY:68 0 2.80059e-18
C3_260 TOP_ARRAY:69 XI9/xC0:T2 1.33855e-16
C3_261 TOP_ARRAY:69 XI11/xC0:T2 1.33855e-16
Cg3_262 TOP_ARRAY:69 0 2.80059e-18
C3_263 TOP_ARRAY:70 XI13/xC0:T2 1.33855e-16
C3_264 TOP_ARRAY:70 XI9/xC0:T2 1.33855e-16
Cg3_265 TOP_ARRAY:70 0 2.80059e-18
C3_266 TOP_ARRAY:71 XI10/xC0:T2 1.33855e-16
C3_267 TOP_ARRAY:71 XI13/xC0:T2 1.33855e-16
Cg3_268 TOP_ARRAY:71 0 2.80059e-18
C3_269 TOP_ARRAY:72 XI10/xC0:T2 1.33855e-16
Cg3_270 TOP_ARRAY:72 0 1.36655e-16
C3_271 TOP_ARRAY:73 XI8/xC0:T2 3.41929e-18
C3_272 TOP_ARRAY:73 XI7/xC0:T2 3.41929e-18
C3_273 TOP_ARRAY:73 XI12/xC0:T2 3.41929e-18
C3_274 TOP_ARRAY:73 XI14/xC0:T2 3.40851e-18
C3_275 TOP_ARRAY:73 XI11/xC0:T2 3.41929e-18
C3_276 TOP_ARRAY:73 XI9/xC0:T2 3.41929e-18
C3_277 TOP_ARRAY:73 XI13/xC0:T2 3.41929e-18
C3_278 TOP_ARRAY:73 XI10/xC0:T2 3.41929e-18
C3_279 TOP_ARRAY:73 XI5/xC0:T2 3.41929e-18
C3_280 TOP_ARRAY:73 XI4/xC0:T2 3.41929e-18
C3_281 TOP_ARRAY:73 XI6/xC0:T2 3.41929e-18
C3_282 TOP_ARRAY:73 XI2/xC0:T2 3.41929e-18
C3_283 TOP_ARRAY:73 XI1/xC0:T2 3.41929e-18
C3_284 TOP_ARRAY:73 XI3/xC0:T2 3.41929e-18
Cg3_285 TOP_ARRAY:73 0 6.03244e-16
Cg3_286 TOP_ARRAY:74 0 7.66214e-16
C3_287 TOP_ARRAY:75 XI5/xC0:T2 1.2909e-16
Cg3_288 TOP_ARRAY:75 0 1.44344e-16
C3_289 TOP_ARRAY:76 XI4/xC0:T2 1.2909e-16
C3_290 TOP_ARRAY:76 XI5/xC0:T2 1.2909e-16
Cg3_291 TOP_ARRAY:76 0 1.52546e-17
C3_292 TOP_ARRAY:77 XI6/xC0:T2 1.2909e-16
C3_293 TOP_ARRAY:77 XI4/xC0:T2 1.2909e-16
Cg3_294 TOP_ARRAY:77 0 1.52546e-17
C3_295 TOP_ARRAY:78 net39:7 1.2909e-16
C3_296 TOP_ARRAY:78 net020:7 1.2909e-16
Cg3_297 TOP_ARRAY:78 0 1.52546e-17
C3_298 TOP_ARRAY:79 XI2/xC0:T2 1.14821e-16
C3_299 TOP_ARRAY:79 net020:7 1.42687e-17
C3_300 TOP_ARRAY:79 net015:7 1.2909e-16
Cg3_301 TOP_ARRAY:79 0 1.52546e-17
C3_302 TOP_ARRAY:80 net015:7 1.2909e-16
C3_303 TOP_ARRAY:80 net024:7 1.2909e-16
Cg3_304 TOP_ARRAY:80 0 1.52546e-17
C3_305 TOP_ARRAY:81 XI3/xC0:T2 1.11445e-16
C3_306 TOP_ARRAY:81 net024:7 1.76444e-17
C3_307 TOP_ARRAY:81 net47:7 1.2909e-16
Cg3_308 TOP_ARRAY:81 0 1.52546e-17
C3_309 TOP_ARRAY:82 net47:7 1.2909e-16
C3_310 TOP_ARRAY:82 net43:7 1.2909e-16
Cg3_311 TOP_ARRAY:82 0 1.52546e-17
C3_312 TOP_ARRAY:83 net43:7 1.76648e-17
C3_313 TOP_ARRAY:83 net060:7 1.2909e-16
C3_314 TOP_ARRAY:83 XI7/xC0:T2 1.11425e-16
Cg3_315 TOP_ARRAY:83 0 1.52546e-17
C3_316 TOP_ARRAY:84 XI12/xC0:T2 1.10417e-16
C3_317 TOP_ARRAY:84 net060:7 1.86732e-17
C3_318 TOP_ARRAY:84 net068:7 1.2909e-16
Cg3_319 TOP_ARRAY:84 0 1.52546e-17
C3_320 TOP_ARRAY:85 XI14/xC0:T2 1.11455e-16
C3_321 TOP_ARRAY:85 net068:7 1.76351e-17
C3_322 TOP_ARRAY:85 net056:7 1.2909e-16
Cg3_323 TOP_ARRAY:85 0 1.52546e-17
C3_324 TOP_ARRAY:86 net51:7 1.2909e-16
C3_325 TOP_ARRAY:86 net056:7 1.2909e-16
Cg3_326 TOP_ARRAY:86 0 1.52546e-17
C3_327 TOP_ARRAY:87 net51:7 1.2909e-16
C3_328 TOP_ARRAY:87 net064:7 1.2909e-16
Cg3_329 TOP_ARRAY:87 0 1.52546e-17
C3_330 TOP_ARRAY:88 net064:7 1.2909e-16
C3_331 TOP_ARRAY:88 net55:7 1.2909e-16
Cg3_332 TOP_ARRAY:88 0 1.52546e-17
C3_333 TOP_ARRAY:89 XI10/xC0:T2 1.2909e-16
Cg3_334 TOP_ARRAY:89 0 1.44074e-16
C3_335 TOP_ARRAY:90 XI8/xC0:T2 3.9398e-18
C3_336 TOP_ARRAY:90 XI7/xC0:T2 3.9398e-18
C3_337 TOP_ARRAY:90 XI12/xC0:T2 3.9398e-18
C3_338 TOP_ARRAY:90 XI14/xC0:T2 3.94274e-18
C3_339 TOP_ARRAY:90 XI11/xC0:T2 3.9398e-18
C3_340 TOP_ARRAY:90 XI9/xC0:T2 3.9398e-18
C3_341 TOP_ARRAY:90 XI13/xC0:T2 3.9398e-18
C3_342 TOP_ARRAY:90 XI10/xC0:T2 3.9398e-18
C3_343 TOP_ARRAY:90 XI5/xC0:T2 3.9398e-18
C3_344 TOP_ARRAY:90 XI4/xC0:T2 3.9398e-18
C3_345 TOP_ARRAY:90 XI6/xC0:T2 3.9398e-18
C3_346 TOP_ARRAY:90 XI2/xC0:T2 3.9398e-18
C3_347 TOP_ARRAY:90 XI1/xC0:T2 3.9398e-18
C3_348 TOP_ARRAY:90 XI3/xC0:T2 3.9398e-18
Cg3_349 TOP_ARRAY:90 0 6.80573e-16
R3_267 TOP_ARRAY TOP_ARRAY:90 24.2849
R3_268 XI0/xC0:T1 TOP_ARRAY:37 7.18535
R3_269 XI34/xC0:T1 TOP_ARRAY:55 6.93521
R3_270 XI10/xC0:T1 TOP_ARRAY:54 6.95359
R3_271 XI13/xC0:T1 TOP_ARRAY:53 6.93521
R3_272 XI9/xC0:T1 TOP_ARRAY:52 6.95359
R3_273 XI11/xC0:T1 TOP_ARRAY:51 6.93521
R3_274 XI14/xC0:T1 TOP_ARRAY:50 6.93521
R3_275 XI12/xC0:T1 TOP_ARRAY:49 6.95359
R3_276 XI7/xC0:T1 TOP_ARRAY:48 6.93521
R3_277 XI8/xC0:T1 TOP_ARRAY:47 6.95359
R3_278 XI3/xC0:T1 TOP_ARRAY:46 6.95359
R3_279 XI1/xC0:T1 TOP_ARRAY:45 6.93521
R3_280 XI2/xC0:T1 TOP_ARRAY:44 6.95359
R3_281 XI6/xC0:T1 TOP_ARRAY:43 6.93521
R3_282 XI4/xC0:T1 TOP_ARRAY:42 6.93521
R3_283 XI5/xC0:T1 TOP_ARRAY:41 6.95359
R3_284 XI35/xC0:T1 TOP_ARRAY:40 6.93521
R3_285 XI36/xC0:T1 TOP_ARRAY:39 6.95359
R3_286 XI37/xC0:T1 TOP_ARRAY:38 6.93521
R3_287 TOP_ARRAY:1 TOP_ARRAY:2 8
R3_288 TOP_ARRAY:1 TOP_ARRAY:56 0.455854
R3_289 TOP_ARRAY:1 TOP_ARRAY:57 0.142454
R3_290 TOP_ARRAY:2 TOP_ARRAY:38 0.455857
R3_291 TOP_ARRAY:2 TOP_ARRAY:39 0.142455
R3_292 TOP_ARRAY:3 TOP_ARRAY:4 8
R3_293 TOP_ARRAY:3 TOP_ARRAY:57 0.227927
R3_294 TOP_ARRAY:3 TOP_ARRAY:58 0.370381
R3_295 TOP_ARRAY:4 TOP_ARRAY:39 0.227928
R3_296 TOP_ARRAY:4 TOP_ARRAY:40 0.370384
R3_297 TOP_ARRAY:5 TOP_ARRAY:6 8
R3_298 TOP_ARRAY:5 TOP_ARRAY:58 0.370381
R3_299 TOP_ARRAY:5 TOP_ARRAY:59 0.227927
R3_300 TOP_ARRAY:6 TOP_ARRAY:40 0.370384
R3_301 TOP_ARRAY:6 TOP_ARRAY:41 0.227928
R3_302 TOP_ARRAY:7 TOP_ARRAY:8 8
R3_303 TOP_ARRAY:7 TOP_ARRAY:59 0.142454
R3_304 TOP_ARRAY:7 TOP_ARRAY:60 0.455854
R3_305 TOP_ARRAY:8 TOP_ARRAY:41 0.142455
R3_306 TOP_ARRAY:8 TOP_ARRAY:42 0.455857
R3_307 TOP_ARRAY:9 TOP_ARRAY:10 8
R3_308 TOP_ARRAY:9 TOP_ARRAY:60 0.284909
R3_309 TOP_ARRAY:9 TOP_ARRAY:61 0.313399
R3_310 TOP_ARRAY:10 TOP_ARRAY:42 0.284911
R3_311 TOP_ARRAY:10 TOP_ARRAY:43 0.313402
R3_312 TOP_ARRAY:11 TOP_ARRAY:12 8
R3_313 TOP_ARRAY:11 TOP_ARRAY:61 0.427363
R3_314 TOP_ARRAY:11 TOP_ARRAY:62 0.170945
R3_315 TOP_ARRAY:12 TOP_ARRAY:43 0.427366
R3_316 TOP_ARRAY:12 TOP_ARRAY:44 0.170946
R3_317 TOP_ARRAY:13 TOP_ARRAY:14 8
R3_318 TOP_ARRAY:13 TOP_ARRAY:62 0.199436
R3_319 TOP_ARRAY:13 TOP_ARRAY:63 0.398872
R3_320 TOP_ARRAY:14 TOP_ARRAY:44 0.199437
R3_321 TOP_ARRAY:14 TOP_ARRAY:45 0.398875
R3_322 TOP_ARRAY:15 TOP_ARRAY:16 8
R3_323 TOP_ARRAY:15 TOP_ARRAY:63 0.34189
R3_324 TOP_ARRAY:15 TOP_ARRAY:64 0.256418
R3_325 TOP_ARRAY:16 TOP_ARRAY:45 0.341893
R3_326 TOP_ARRAY:16 TOP_ARRAY:46 0.256419
R3_327 TOP_ARRAY:17 TOP_ARRAY:18 8
R3_328 TOP_ARRAY:17 TOP_ARRAY:19 0.370381
R3_329 TOP_ARRAY:17 TOP_ARRAY:64 0.113963
R3_330 TOP_ARRAY:18 TOP_ARRAY:20 0.370384
R3_331 TOP_ARRAY:18 TOP_ARRAY:46 0.113964
R3_332 TOP_ARRAY:19 TOP_ARRAY:20 8
R3_333 TOP_ARRAY:19 TOP_ARRAY:65 0.113963
R3_334 TOP_ARRAY:20 TOP_ARRAY:47 0.113964
R3_335 TOP_ARRAY:21 TOP_ARRAY:22 8
R3_336 TOP_ARRAY:21 TOP_ARRAY:65 0.256418
R3_337 TOP_ARRAY:21 TOP_ARRAY:66 0.34189
R3_338 TOP_ARRAY:22 TOP_ARRAY:47 0.256419
R3_339 TOP_ARRAY:22 TOP_ARRAY:48 0.341893
R3_340 TOP_ARRAY:23 TOP_ARRAY:24 8
R3_341 TOP_ARRAY:23 TOP_ARRAY:66 0.398872
R3_342 TOP_ARRAY:23 TOP_ARRAY:67 0.199436
R3_343 TOP_ARRAY:24 TOP_ARRAY:48 0.398875
R3_344 TOP_ARRAY:24 TOP_ARRAY:49 0.199437
R3_345 TOP_ARRAY:25 TOP_ARRAY:26 8
R3_346 TOP_ARRAY:25 TOP_ARRAY:67 0.170945
R3_347 TOP_ARRAY:25 TOP_ARRAY:68 0.427363
R3_348 TOP_ARRAY:26 TOP_ARRAY:49 0.170946
R3_349 TOP_ARRAY:26 TOP_ARRAY:50 0.427366
R3_350 TOP_ARRAY:27 TOP_ARRAY:28 8
R3_351 TOP_ARRAY:27 TOP_ARRAY:68 0.313399
R3_352 TOP_ARRAY:27 TOP_ARRAY:69 0.284909
R3_353 TOP_ARRAY:28 TOP_ARRAY:50 0.313402
R3_354 TOP_ARRAY:28 TOP_ARRAY:51 0.284911
R3_355 TOP_ARRAY:29 TOP_ARRAY:30 8
R3_356 TOP_ARRAY:29 TOP_ARRAY:69 0.455854
R3_357 TOP_ARRAY:29 TOP_ARRAY:70 0.142454
R3_358 TOP_ARRAY:30 TOP_ARRAY:51 0.455857
R3_359 TOP_ARRAY:30 TOP_ARRAY:52 0.142455
R3_360 TOP_ARRAY:31 TOP_ARRAY:32 8
R3_361 TOP_ARRAY:31 TOP_ARRAY:70 0.227927
R3_362 TOP_ARRAY:31 TOP_ARRAY:71 0.370381
R3_363 TOP_ARRAY:32 TOP_ARRAY:52 0.227928
R3_364 TOP_ARRAY:32 TOP_ARRAY:53 0.370384
R3_365 TOP_ARRAY:33 TOP_ARRAY:34 8
R3_366 TOP_ARRAY:33 TOP_ARRAY:71 0.370381
R3_367 TOP_ARRAY:33 TOP_ARRAY:72 0.227927
R3_368 TOP_ARRAY:34 TOP_ARRAY:53 0.370384
R3_369 TOP_ARRAY:34 TOP_ARRAY:54 0.227928
R3_370 TOP_ARRAY:35 TOP_ARRAY:36 8
R3_371 TOP_ARRAY:35 TOP_ARRAY:72 0.142454
R3_372 TOP_ARRAY:35 TOP_ARRAY:73 0.455854
R3_373 TOP_ARRAY:36 TOP_ARRAY:54 0.142455
R3_374 TOP_ARRAY:36 TOP_ARRAY:55 0.455857
R3_375 TOP_ARRAY:37 TOP_ARRAY:55 0.284911