*
*|DSPF 1.3
*|DESIGN ARRAY_CMP_T1
*|DATE "Tue Mar 23 19:39:20 2021"
*|VENDOR "Synopsys"
*|PROGRAM "StarRC"
*|VERSION "K-2015.06-SP1"
*|DIVIDER /
*|DELIMITER :
**FORMAT SPF
*

** COMMENTS

** OPERATING_TEMPERATURE 25
** GLOBAL_TEMPERATURE 25
** TCAD_GRD_FILE /raidj/user/t28/t28u25/etron/ADC_SAR4BIT/runLPE/cln28hpc+_1p09m+ut-alrdl_6x2z_typical.nxtgrd
**   TCAD_TIME_STAMP Thu Jun 25 12:48:01 2015
**   TCADGRD_VERSION 80
** HALF_NODE_SCALE_FACTOR 0.9


.SUBCKT ARRAY_CMP_T1 TOP_ARRAY SL3B SL2B SL1B SL3A SL2A SL1A

*|GROUND_NET 0

*|NET SL3B 0.00446841PF
*|P (SL3B O 0 1.46989 -1.16489)
*|I (XI14/xC0:T2 XI14/xC0 T2 B 0 1.46989 1.30989)
*|I (XI10/xC0:T2 XI10/xC0 T2 B 0 1.67989 1.30989)
*|I (XI5/xC0:T2 XI5/xC0 T2 B 0 3.14989 1.30989)
*|I (XI1/xC0:T2 XI1/xC0 T2 B 0 3.35989 1.30989)
Cg4_1 SL3B 0 2.3661e-16
Cg4_2 XI14/xC0:T2 0 8.84439e-19
Cg4_3 XI10/xC0:T2 0 6.44066e-17
Cg4_4 XI5/xC0:T2 0 2.7354e-17
Cg4_5 XI1/xC0:T2 0 2.54912e-17
Cg4_6 SL3B:1 0 1.29426e-16
Cg4_7 SL3B:2 0 3.32954e-17
R4_1 SL3B SL3B:2 0.613217
R4_2 SL3B XI14/xC0:T2 45.4414
R4_3 XI10/xC0:T2 SL3B:2 45.4606
R4_4 XI5/xC0:T2 SL3B:1 45.4606
R4_5 XI1/xC0:T2 SL3B:1 46.055
R4_6 SL3B:1 SL3B:2 4.29252

*|NET SL3A 0.00435194PF
*|P (SL3A O 0 1.04989 -1.27489)
*|I (XI13/xC0:T2 XI13/xC0 T2 B 0 1.04989 1.30989)
*|I (XI11/xC0:T2 XI11/xC0 T2 B 0 1.25989 1.30989)
*|I (XI4/xC0:T2 XI4/xC0 T2 B 0 3.56989 1.30989)
*|I (XI2/xC0:T2 XI2/xC0 T2 B 0 3.77989 1.30989)
C7_8 SL3A SL3B 3.765e-18
C7_9 SL3A XI1/xC0:T2 3.765e-18
C7_10 SL3A XI5/xC0:T2 3.04087e-18
C7_11 SL3A SL3B:2 7.24132e-19
C7_12 SL3A XI10/xC0:T2 3.04087e-18
C7_13 SL3A SL3B:1 7.24132e-19
Cg7_14 SL3A 0 3.51162e-16
C7_15 XI13/xC0:T2 SL3B 4.32712e-18
C7_16 XI13/xC0:T2 XI14/xC0:T2 2.88815e-18
Cg7_17 XI13/xC0:T2 0 4.58469e-18
C7_18 XI11/xC0:T2 SL3B 8.28267e-17
C7_19 XI11/xC0:T2 SL3B:2 2.55654e-18
C7_20 XI11/xC0:T2 XI10/xC0:T2 1.11399e-18
C7_21 XI11/xC0:T2 XI14/xC0:T2 2.50752e-17
Cg7_22 XI11/xC0:T2 0 1.57674e-18
C7_23 SL3A:1 SL3B:1 9.29508e-17
Cg7_24 SL3A:1 0 3.03714e-16
C7_25 XI4/xC0:T2 XI1/xC0:T2 9.23073e-17
C7_26 XI4/xC0:T2 XI5/xC0:T2 2.90412e-18
Cg7_27 XI4/xC0:T2 0 5.62762e-18
C7_28 XI2/xC0:T2 XI1/xC0:T2 2.88815e-18
Cg7_29 XI2/xC0:T2 0 8.81977e-18
C7_30 SL3A:2 XI10/xC0:T2 1.75076e-18
C7_31 SL3A:2 XI14/xC0:T2 7.07516e-17
Cg7_32 SL3A:2 0 7.55438e-17
R7_7 SL3A SL3A:2 0.571214
R7_8 SL3A XI13/xC0:T2 29.7081
R7_9 XI11/xC0:T2 SL3A:2 29.7162
R7_10 SL3A:1 SL3A:2 6.28335
R7_11 SL3A:1 XI2/xC0:T2 30.2793
R7_12 SL3A:1 XI4/xC0:T2 29.7162

*|NET SL2B 0.00256804PF
*|P (SL2B O 0 2.09989 -0.834889)
*|I (XI12/xC0:T2 XI12/xC0 T2 B 0 2.09989 1.30989)
*|I (XI6/xC0:T2 XI6/xC0 T2 B 0 2.72989 1.30989)
Cg5_33 SL2B 0 2.29357e-16
Cg5_34 XI12/xC0:T2 0 7.18702e-18
Cg5_35 XI6/xC0:T2 0 1.85594e-17
R5_13 SL2B XI6/xC0:T2 46.2171
R5_14 SL2B XI12/xC0:T2 44.4416

*|NET SL2A 0.0025312PF
*|P (SL2A O 0 1.88989 -0.944889)
*|I (XI9/xC0:T2 XI9/xC0 T2 B 0 1.88989 1.30989)
*|I (XI3/xC0:T2 XI3/xC0 T2 B 0 2.93989 1.30989)
C8_36 SL2A XI6/xC0:T2 3.98064e-18
C8_37 SL2A XI12/xC0:T2 5.29088e-17
C8_38 SL2A SL3B:2 3.23912e-17
C8_39 SL2A XI10/xC0:T2 1.06692e-16
Cg8_40 SL2A 0 9.40991e-17
C8_41 XI9/xC0:T2 SL3B 4.16624e-18
C8_42 XI9/xC0:T2 SL2B 2.9116e-17
C8_43 XI9/xC0:T2 XI5/xC0:T2 1.62317e-19
C8_44 XI9/xC0:T2 XI6/xC0:T2 5.84405e-19
C8_45 XI9/xC0:T2 XI12/xC0:T2 8.85547e-17
C8_46 XI9/xC0:T2 XI10/xC0:T2 2.95193e-17
C8_47 XI9/xC0:T2 XI14/xC0:T2 2.20736e-18
Cg8_48 XI9/xC0:T2 0 2.38707e-17
C8_49 XI3/xC0:T2 SL3B 1.69734e-18
C8_50 XI3/xC0:T2 SL2B 3.50677e-17
C8_51 XI3/xC0:T2 XI1/xC0:T2 2.90412e-18
C8_52 XI3/xC0:T2 XI5/xC0:T2 1.0619e-16
C8_53 XI3/xC0:T2 XI6/xC0:T2 1.2924e-16
C8_54 XI3/xC0:T2 SL3B:2 1.62317e-19
C8_55 XI3/xC0:T2 SL3B:1 6.41862e-17
Cg8_56 XI3/xC0:T2 0 1.21986e-16
R8_15 SL2A XI3/xC0:T2 31.4655
R8_16 SL2A XI9/xC0:T2 28.5627

*|NET SL1B 0.00125947PF
*|P (SL1B O 0 2.30989 -0.504889)
*|I (XI8/xC0:T2 XI8/xC0 T2 B 0 2.30989 1.30989)
C6_57 SL1B SL2B 6.13446e-18
C6_58 SL1B XI12/xC0:T2 3.86509e-17
C6_59 SL1B XI6/xC0:T2 1.66592e-18
Cg6_60 SL1B 0 6.97951e-17
C6_61 XI8/xC0:T2 SL2B 3.93639e-17
C6_62 XI8/xC0:T2 XI6/xC0:T2 1.17377e-17
C6_63 XI8/xC0:T2 XI12/xC0:T2 1.10399e-16
Cg6_64 XI8/xC0:T2 0 1.93796e-17
R6_17 SL1B XI8/xC0:T2 43.5309

*|NET SL1A 0.00121377PF
*|P (SL1A O 0 2.51989 -0.504889)
*|I (XI7/xC0:T2 XI7/xC0 T2 B 0 2.51989 1.30989)
Cg9_65 SL1A 0 1.5152e-17
C9_66 XI7/xC0:T2 SL2B 1.95258e-18
C9_67 XI7/xC0:T2 SL1B 5.08434e-17
C9_68 XI7/xC0:T2 XI6/xC0:T2 1.59042e-16
C9_69 XI7/xC0:T2 XI8/xC0:T2 1.10681e-16
C9_70 XI7/xC0:T2 XI12/xC0:T2 2.9082e-18
Cg9_71 XI7/xC0:T2 0 7.23173e-17
R9_18 SL1A XI7/xC0:T2 27.3819

*|NET TOP_ARRAY 0.0167445PF
*|P (TOP_ARRAY O 0 0.627889 2.56489)
*|I (XI37/xC0:T1 XI37/xC0 T1 B 0 0.542444 1.63489)
*|I (XI35/xC0:T1 XI35/xC0 T1 B 0 0.752444 1.63489)
*|I (XI13/xC0:T1 XI13/xC0 T1 B 0 0.962444 1.63489)
*|I (XI11/xC0:T1 XI11/xC0 T1 B 0 1.17244 1.63489)
*|I (XI14/xC0:T1 XI14/xC0 T1 B 0 1.38244 1.63489)
*|I (XI10/xC0:T1 XI10/xC0 T1 B 0 1.59244 1.63489)
*|I (XI9/xC0:T1 XI9/xC0 T1 B 0 1.80244 1.63489)
*|I (XI12/xC0:T1 XI12/xC0 T1 B 0 2.01244 1.63489)
*|I (XI8/xC0:T1 XI8/xC0 T1 B 0 2.22244 1.63489)
*|I (XI7/xC0:T1 XI7/xC0 T1 B 0 2.43244 1.63489)
*|I (XI6/xC0:T1 XI6/xC0 T1 B 0 2.64244 1.63489)
*|I (XI3/xC0:T1 XI3/xC0 T1 B 0 2.85244 1.63489)
*|I (XI5/xC0:T1 XI5/xC0 T1 B 0 3.06244 1.63489)
*|I (XI1/xC0:T1 XI1/xC0 T1 B 0 3.27244 1.63489)
*|I (XI4/xC0:T1 XI4/xC0 T1 B 0 3.48244 1.63489)
*|I (XI2/xC0:T1 XI2/xC0 T1 B 0 3.69244 1.63489)
*|I (XI34/xC0:T1 XI34/xC0 T1 B 0 3.90244 1.63489)
*|I (XI0/xC0:T1 XI0/xC0 T1 B 0 4.11244 1.63489)
*|I (XI36/xC0:T1 XI36/xC0 T1 B 0 4.32244 1.63489)
Cg2_72 TOP_ARRAY 0 2.96057e-17
C2_73 TOP_ARRAY:18 SL3A:1 5.08409e-19
C2_74 TOP_ARRAY:18 XI2/xC0:T2 3.67749e-18
C2_75 TOP_ARRAY:18 XI4/xC0:T2 4.18589e-18
C2_76 TOP_ARRAY:18 XI1/xC0:T2 4.18589e-18
C2_77 TOP_ARRAY:18 XI5/xC0:T2 4.18589e-18
C2_78 TOP_ARRAY:18 XI3/xC0:T2 4.18589e-18
C2_79 TOP_ARRAY:18 XI6/xC0:T2 4.18589e-18
C2_80 TOP_ARRAY:18 XI7/xC0:T2 4.18589e-18
C2_81 TOP_ARRAY:18 XI8/xC0:T2 4.18589e-18
C2_82 TOP_ARRAY:18 XI12/xC0:T2 4.18589e-18
C2_83 TOP_ARRAY:18 XI9/xC0:T2 4.18589e-18
C2_84 TOP_ARRAY:18 XI10/xC0:T2 4.18589e-18
C2_85 TOP_ARRAY:18 XI14/xC0:T2 4.18589e-18
C2_86 TOP_ARRAY:18 XI11/xC0:T2 4.18589e-18
C2_87 TOP_ARRAY:18 XI13/xC0:T2 4.18589e-18
Cg2_88 TOP_ARRAY:18 0 3.5577e-16
Cg2_89 TOP_ARRAY:19 0 4.6767e-16
Cg2_90 TOP_ARRAY:20 0 6.4629e-16
Cg2_91 XI37/xC0:T1 0 1.80368e-17
Cg2_92 TOP_ARRAY:21 0 2.70249e-16
Cg2_93 TOP_ARRAY:22 0 2.73589e-16
Cg2_94 TOP_ARRAY:23 0 2.7052e-16
C2_95 TOP_ARRAY:24 SL3A:1 1.29129e-16
C2_96 TOP_ARRAY:24 XI2/xC0:T2 1.29624e-16
Cg2_97 TOP_ARRAY:24 0 1.47929e-17
C2_98 TOP_ARRAY:25 SL3A:1 1.09103e-16
C2_99 TOP_ARRAY:25 XI4/xC0:T2 1.25936e-17
C2_100 TOP_ARRAY:25 XI2/xC0:T2 1.46867e-16
Cg2_101 TOP_ARRAY:25 0 1.95782e-18
C2_102 TOP_ARRAY:26 XI4/xC0:T2 4.9515e-19
C2_103 TOP_ARRAY:26 XI2/xC0:T2 1.28634e-16
C2_104 TOP_ARRAY:26 SL3B:1 1.29098e-16
Cg2_105 TOP_ARRAY:26 0 1.52959e-17
C2_106 TOP_ARRAY:27 SL3A:1 1.20854e-16
C2_107 TOP_ARRAY:27 XI1/xC0:T2 1.21696e-16
C2_108 TOP_ARRAY:27 XI4/xC0:T2 2.51703e-17
Cg2_109 TOP_ARRAY:27 0 2.80023e-18
C2_110 TOP_ARRAY:28 XI1/xC0:T2 4.64755e-19
C2_111 TOP_ARRAY:28 XI4/xC0:T2 1.28634e-16
C2_112 TOP_ARRAY:28 SL3B:1 1.29098e-16
Cg2_113 TOP_ARRAY:28 0 1.52951e-17
C2_114 TOP_ARRAY:29 XI5/xC0:T2 1.21696e-16
C2_115 TOP_ARRAY:29 XI1/xC0:T2 2.51704e-17
C2_116 TOP_ARRAY:29 XI4/xC0:T2 1.20854e-16
Cg2_117 TOP_ARRAY:29 0 2.80029e-18
C2_118 TOP_ARRAY:30 XI5/xC0:T2 1.16525e-16
C2_119 TOP_ARRAY:30 XI1/xC0:T2 1.28634e-16
Cg2_120 TOP_ARRAY:30 0 2.83328e-17
C2_121 TOP_ARRAY:31 XI3/xC0:T2 1.2164e-17
C2_122 TOP_ARRAY:31 XI5/xC0:T2 1.33018e-16
C2_123 TOP_ARRAY:31 XI1/xC0:T2 1.20854e-16
Cg2_124 TOP_ARRAY:31 0 4.48525e-18
C2_125 TOP_ARRAY:32 XI3/xC0:T2 1.22993e-17
C2_126 TOP_ARRAY:32 SL2A 1.17322e-16
C2_127 TOP_ARRAY:32 SL2B 1.29098e-16
C2_128 TOP_ARRAY:32 SL3B:1 1.25732e-17
Cg2_129 TOP_ARRAY:32 0 2.21351e-18
C2_130 TOP_ARRAY:33 XI6/xC0:T2 1.27364e-17
C2_131 TOP_ARRAY:33 XI3/xC0:T2 2.54729e-17
C2_132 TOP_ARRAY:33 XI5/xC0:T2 1.27364e-17
C2_133 TOP_ARRAY:33 SL2A 1.0923e-16
C2_134 TOP_ARRAY:33 SL2B 1.0896e-16
C2_135 TOP_ARRAY:33 SL3B:1 2.70029e-19
Cg2_136 TOP_ARRAY:33 0 1.1155e-18
C2_137 TOP_ARRAY:34 XI6/xC0:T2 4.64755e-19
C2_138 TOP_ARRAY:34 SL1A 1.29128e-16
C2_139 TOP_ARRAY:34 SL2A 1.28634e-16
Cg2_140 TOP_ARRAY:34 0 1.52799e-17
C2_141 TOP_ARRAY:35 XI7/xC0:T2 1.25936e-17
C2_142 TOP_ARRAY:35 XI6/xC0:T2 2.51704e-17
C2_143 TOP_ARRAY:35 SL1A 1.09103e-16
C2_144 TOP_ARRAY:35 SL2A 1.20854e-16
Cg2_145 TOP_ARRAY:35 0 2.80033e-18
C2_146 TOP_ARRAY:36 XI8/xC0:T2 1.22047e-17
C2_147 TOP_ARRAY:36 XI7/xC0:T2 4.94532e-19
C2_148 TOP_ARRAY:36 XI6/xC0:T2 1.28634e-16
C2_149 TOP_ARRAY:36 SL1B 1.16894e-16
Cg2_150 TOP_ARRAY:36 0 1.52795e-17
C2_151 TOP_ARRAY:37 XI8/xC0:T2 1.25936e-17
C2_152 TOP_ARRAY:37 XI7/xC0:T2 2.51704e-17
C2_153 TOP_ARRAY:37 XI6/xC0:T2 1.20854e-16
C2_154 TOP_ARRAY:37 SL1B 1.09103e-16
Cg2_155 TOP_ARRAY:37 0 2.80034e-18
C2_156 TOP_ARRAY:38 XI12/xC0:T2 1.22047e-17
C2_157 TOP_ARRAY:38 XI8/xC0:T2 4.64755e-19
C2_158 TOP_ARRAY:38 SL1A 1.28634e-16
C2_159 TOP_ARRAY:38 SL2B 1.16894e-16
Cg2_160 TOP_ARRAY:38 0 1.52944e-17
C2_161 TOP_ARRAY:39 XI12/xC0:T2 1.25936e-17
C2_162 TOP_ARRAY:39 XI8/xC0:T2 2.51704e-17
C2_163 TOP_ARRAY:39 SL1A 1.20854e-16
C2_164 TOP_ARRAY:39 SL2B 1.09103e-16
Cg2_165 TOP_ARRAY:39 0 2.80031e-18
C2_166 TOP_ARRAY:40 XI12/xC0:T2 3.85169e-19
C2_167 TOP_ARRAY:40 XI8/xC0:T2 1.28634e-16
C2_168 TOP_ARRAY:40 SL2A 1.29128e-16
C2_169 TOP_ARRAY:40 SL2B 7.95861e-20
Cg2_170 TOP_ARRAY:40 0 1.52655e-17
C2_171 TOP_ARRAY:41 XI9/xC0:T2 1.25936e-17
C2_172 TOP_ARRAY:41 XI12/xC0:T2 2.51704e-17
C2_173 TOP_ARRAY:41 XI8/xC0:T2 1.20854e-16
C2_174 TOP_ARRAY:41 SL2A 1.09103e-16
Cg2_175 TOP_ARRAY:41 0 2.80041e-18
C2_176 TOP_ARRAY:42 XI9/xC0:T2 4.94036e-19
C2_177 TOP_ARRAY:42 XI12/xC0:T2 1.28634e-16
C2_178 TOP_ARRAY:42 SL3B:2 1.29098e-16
Cg2_179 TOP_ARRAY:42 0 1.52808e-17
C2_180 TOP_ARRAY:43 XI10/xC0:T2 1.25936e-17
C2_181 TOP_ARRAY:43 XI9/xC0:T2 2.51703e-17
C2_182 TOP_ARRAY:43 XI12/xC0:T2 1.20854e-16
C2_183 TOP_ARRAY:43 SL3B:2 1.09103e-16
Cg2_184 TOP_ARRAY:43 0 2.80033e-18
C2_185 TOP_ARRAY:44 XI10/xC0:T2 4.64755e-19
C2_186 TOP_ARRAY:44 XI9/xC0:T2 1.28634e-16
C2_187 TOP_ARRAY:44 SL3B 1.29098e-16
Cg2_188 TOP_ARRAY:44 0 1.52948e-17
C2_189 TOP_ARRAY:45 XI14/xC0:T2 1.21696e-16
C2_190 TOP_ARRAY:45 XI10/xC0:T2 2.51704e-17
C2_191 TOP_ARRAY:45 XI9/xC0:T2 1.20854e-16
Cg2_192 TOP_ARRAY:45 0 2.8003e-18
C2_193 TOP_ARRAY:46 XI14/xC0:T2 4.64755e-19
C2_194 TOP_ARRAY:46 XI10/xC0:T2 1.28634e-16
C2_195 TOP_ARRAY:46 SL3A:2 1.29129e-16
Cg2_196 TOP_ARRAY:46 0 1.52647e-17
C2_197 TOP_ARRAY:47 XI14/xC0:T2 2.51704e-17
C2_198 TOP_ARRAY:47 XI10/xC0:T2 1.20854e-16
C2_199 TOP_ARRAY:47 SL3A:2 1.21267e-16
Cg2_200 TOP_ARRAY:47 0 3.23006e-18
C2_201 TOP_ARRAY:48 XI11/xC0:T2 4.9515e-19
C2_202 TOP_ARRAY:48 XI14/xC0:T2 1.28634e-16
C2_203 TOP_ARRAY:48 SL3A 1.29129e-16
Cg2_204 TOP_ARRAY:48 0 1.52655e-17
C2_205 TOP_ARRAY:49 XI13/xC0:T2 1.21267e-16
C2_206 TOP_ARRAY:49 XI11/xC0:T2 2.51703e-17
C2_207 TOP_ARRAY:49 XI14/xC0:T2 1.20854e-16
Cg2_208 TOP_ARRAY:49 0 3.23e-18
C2_209 TOP_ARRAY:50 XI11/xC0:T2 1.28634e-16
Cg2_210 TOP_ARRAY:50 0 1.44906e-16
C2_211 TOP_ARRAY:51 XI13/xC0:T2 1.25936e-17
C2_212 TOP_ARRAY:51 XI11/xC0:T2 1.21284e-16
Cg2_213 TOP_ARRAY:51 0 1.36643e-16
C2_214 TOP_ARRAY:52 XI13/xC0:T2 1.29129e-16
Cg2_215 TOP_ARRAY:52 0 1.43708e-16
C2_216 TOP_ARRAY:53 XI13/xC0:T2 1.3386e-16
Cg2_217 TOP_ARRAY:53 0 1.36646e-16
C2_218 TOP_ARRAY:54 XI2/xC0:T2 3.4074e-18
C2_219 TOP_ARRAY:54 XI4/xC0:T2 3.4074e-18
C2_220 TOP_ARRAY:54 XI1/xC0:T2 3.4074e-18
C2_221 TOP_ARRAY:54 XI5/xC0:T2 3.4074e-18
C2_222 TOP_ARRAY:54 XI3/xC0:T2 3.4074e-18
C2_223 TOP_ARRAY:54 XI6/xC0:T2 3.4074e-18
C2_224 TOP_ARRAY:54 XI7/xC0:T2 3.4074e-18
C2_225 TOP_ARRAY:54 XI8/xC0:T2 3.4074e-18
C2_226 TOP_ARRAY:54 XI12/xC0:T2 3.4074e-18
C2_227 TOP_ARRAY:54 XI9/xC0:T2 3.4074e-18
C2_228 TOP_ARRAY:54 XI10/xC0:T2 3.4074e-18
C2_229 TOP_ARRAY:54 XI14/xC0:T2 3.4074e-18
C2_230 TOP_ARRAY:54 XI11/xC0:T2 3.4074e-18
C2_231 TOP_ARRAY:54 XI13/xC0:T2 3.4074e-18
Cg2_232 TOP_ARRAY:54 0 4.81582e-16
C2_233 TOP_ARRAY:55 SL3B 3.97114e-18
C2_234 TOP_ARRAY:55 XI2/xC0:T2 3.97114e-18
C2_235 TOP_ARRAY:55 XI4/xC0:T2 3.97114e-18
C2_236 TOP_ARRAY:55 XI1/xC0:T2 3.97114e-18
C2_237 TOP_ARRAY:55 XI3/xC0:T2 3.79056e-18
C2_238 TOP_ARRAY:55 XI6/xC0:T2 3.97114e-18
C2_239 TOP_ARRAY:55 XI7/xC0:T2 3.97114e-18
C2_240 TOP_ARRAY:55 XI8/xC0:T2 3.97114e-18
C2_241 TOP_ARRAY:55 XI12/xC0:T2 3.97114e-18
C2_242 TOP_ARRAY:55 XI9/xC0:T2 3.91184e-18
C2_243 TOP_ARRAY:55 XI10/xC0:T2 3.97114e-18
C2_244 TOP_ARRAY:55 XI11/xC0:T2 3.97114e-18
C2_245 TOP_ARRAY:55 XI13/xC0:T2 3.97114e-18
C2_246 TOP_ARRAY:55 SL3B:1 3.97114e-18
Cg2_247 TOP_ARRAY:55 0 5.46331e-16
Cg2_248 TOP_ARRAY:56 0 5.33282e-16
Cg2_249 TOP_ARRAY:57 0 2.66468e-16
C2_250 TOP_ARRAY:58 XI2/xC0:T2 1.1897e-16
C2_251 TOP_ARRAY:58 SL3A:1 1.26978e-17
Cg2_252 TOP_ARRAY:58 0 1.34801e-16
C2_253 TOP_ARRAY:59 XI4/xC0:T2 1.31667e-16
C2_254 TOP_ARRAY:59 XI2/xC0:T2 1.1897e-16
C2_255 TOP_ARRAY:59 SL3A:1 1.26978e-17
Cg2_256 TOP_ARRAY:59 0 3.13363e-18
C2_257 TOP_ARRAY:60 SL3B:1 1.26978e-17
C2_258 TOP_ARRAY:60 XI1/xC0:T2 1.1897e-16
C2_259 TOP_ARRAY:60 XI4/xC0:T2 1.31667e-16
Cg2_260 TOP_ARRAY:60 0 3.13363e-18
C2_261 TOP_ARRAY:61 SL3B:1 2.53955e-17
C2_262 TOP_ARRAY:61 XI5/xC0:T2 1.1897e-16
C2_263 TOP_ARRAY:61 XI1/xC0:T2 1.1897e-16
Cg2_264 TOP_ARRAY:61 0 3.13363e-18
C2_265 TOP_ARRAY:62 SL3B:1 1.26978e-17
C2_266 TOP_ARRAY:62 XI3/xC0:T2 1.31667e-16
C2_267 TOP_ARRAY:62 XI5/xC0:T2 1.1897e-16
Cg2_268 TOP_ARRAY:62 0 3.13363e-18
C2_269 TOP_ARRAY:63 XI6/xC0:T2 1.31667e-16
C2_270 TOP_ARRAY:63 XI3/xC0:T2 1.31667e-16
Cg2_271 TOP_ARRAY:63 0 3.13363e-18
C2_272 TOP_ARRAY:64 XI7/xC0:T2 1.31667e-16
C2_273 TOP_ARRAY:64 XI6/xC0:T2 1.31667e-16
Cg2_274 TOP_ARRAY:64 0 3.13363e-18
C2_275 TOP_ARRAY:65 XI8/xC0:T2 1.31667e-16
C2_276 TOP_ARRAY:65 XI7/xC0:T2 1.31667e-16
Cg2_277 TOP_ARRAY:65 0 3.13363e-18
C2_278 TOP_ARRAY:66 XI12/xC0:T2 1.31667e-16
C2_279 TOP_ARRAY:66 XI8/xC0:T2 1.31667e-16
Cg2_280 TOP_ARRAY:66 0 3.13363e-18
C2_281 TOP_ARRAY:67 XI9/xC0:T2 1.31667e-16
C2_282 TOP_ARRAY:67 XI12/xC0:T2 1.31667e-16
Cg2_283 TOP_ARRAY:67 0 3.13363e-18
C2_284 TOP_ARRAY:68 XI10/xC0:T2 1.31667e-16
C2_285 TOP_ARRAY:68 XI9/xC0:T2 1.31667e-16
Cg2_286 TOP_ARRAY:68 0 3.13363e-18
C2_287 TOP_ARRAY:69 XI14/xC0:T2 1.31667e-16
C2_288 TOP_ARRAY:69 XI10/xC0:T2 1.31667e-16
Cg2_289 TOP_ARRAY:69 0 3.13363e-18
C2_290 TOP_ARRAY:70 XI11/xC0:T2 1.31667e-16
C2_291 TOP_ARRAY:70 XI14/xC0:T2 1.31667e-16
Cg2_292 TOP_ARRAY:70 0 3.13363e-18
C2_293 TOP_ARRAY:71 XI13/xC0:T2 1.18328e-16
C2_294 TOP_ARRAY:71 XI11/xC0:T2 1.31667e-16
C2_295 TOP_ARRAY:71 SL3A 1.33398e-17
Cg2_296 TOP_ARRAY:71 0 3.13363e-18
C2_297 TOP_ARRAY:72 XI13/xC0:T2 1.18328e-16
C2_298 TOP_ARRAY:72 SL3A 1.33398e-17
Cg2_299 TOP_ARRAY:72 0 1.34801e-16
Cg2_300 TOP_ARRAY:73 0 2.66671e-16
R2_19 TOP_ARRAY:1 TOP_ARRAY:21 8
R2_20 TOP_ARRAY:1 TOP_ARRAY:56 0.299128
R2_21 TOP_ARRAY:1 TOP_ARRAY:57 0.299128
R2_22 TOP_ARRAY:2 TOP_ARRAY:23 8
R2_23 TOP_ARRAY:2 TOP_ARRAY:57 0.299128
R2_24 TOP_ARRAY:2 TOP_ARRAY:58 0.299128
R2_25 TOP_ARRAY:3 TOP_ARRAY:25 8
R2_26 TOP_ARRAY:3 TOP_ARRAY:58 0.299128
R2_27 TOP_ARRAY:3 TOP_ARRAY:59 0.299128
R2_28 TOP_ARRAY:4 TOP_ARRAY:27 8
R2_29 TOP_ARRAY:4 TOP_ARRAY:59 0.299128
R2_30 TOP_ARRAY:4 TOP_ARRAY:60 0.299128
R2_31 TOP_ARRAY:5 TOP_ARRAY:29 8
R2_32 TOP_ARRAY:5 TOP_ARRAY:60 0.299128
R2_33 TOP_ARRAY:5 TOP_ARRAY:61 0.299128
R2_34 TOP_ARRAY:6 TOP_ARRAY:31 8
R2_35 TOP_ARRAY:6 TOP_ARRAY:61 0.299128
R2_36 TOP_ARRAY:6 TOP_ARRAY:62 0.299128
R2_37 TOP_ARRAY:7 TOP_ARRAY:33 8
R2_38 TOP_ARRAY:7 TOP_ARRAY:62 0.299128
R2_39 TOP_ARRAY:7 TOP_ARRAY:63 0.299128
R2_40 TOP_ARRAY:8 TOP_ARRAY:35 8
R2_41 TOP_ARRAY:8 TOP_ARRAY:63 0.299128
R2_42 TOP_ARRAY:8 TOP_ARRAY:64 0.299128
R2_43 TOP_ARRAY:9 TOP_ARRAY:37 8
R2_44 TOP_ARRAY:9 TOP_ARRAY:64 0.299128
R2_45 TOP_ARRAY:9 TOP_ARRAY:65 0.299128
R2_46 TOP_ARRAY:10 TOP_ARRAY:39 8
R2_47 TOP_ARRAY:10 TOP_ARRAY:65 0.299128
R2_48 TOP_ARRAY:10 TOP_ARRAY:66 0.299128
R2_49 TOP_ARRAY:11 TOP_ARRAY:41 8
R2_50 TOP_ARRAY:11 TOP_ARRAY:66 0.299128
R2_51 TOP_ARRAY:11 TOP_ARRAY:67 0.299128
R2_52 TOP_ARRAY:12 TOP_ARRAY:43 8
R2_53 TOP_ARRAY:12 TOP_ARRAY:67 0.299128
R2_54 TOP_ARRAY:12 TOP_ARRAY:68 0.299128
R2_55 TOP_ARRAY:13 TOP_ARRAY:45 8
R2_56 TOP_ARRAY:13 TOP_ARRAY:68 0.299128
R2_57 TOP_ARRAY:13 TOP_ARRAY:69 0.299128
R2_58 TOP_ARRAY:14 TOP_ARRAY:47 8
R2_59 TOP_ARRAY:14 TOP_ARRAY:69 0.299128
R2_60 TOP_ARRAY:14 TOP_ARRAY:70 0.299128
R2_61 TOP_ARRAY:15 TOP_ARRAY:49 8
R2_62 TOP_ARRAY:15 TOP_ARRAY:70 0.299128
R2_63 TOP_ARRAY:15 TOP_ARRAY:71 0.299128
R2_64 TOP_ARRAY:16 TOP_ARRAY:51 8
R2_65 TOP_ARRAY:16 TOP_ARRAY:71 0.299128
R2_66 TOP_ARRAY:16 TOP_ARRAY:72 0.299128
R2_67 TOP_ARRAY TOP_ARRAY:55 24
R2_68 TOP_ARRAY:17 TOP_ARRAY:53 8
R2_69 TOP_ARRAY:17 TOP_ARRAY:72 0.299128
R2_70 TOP_ARRAY:17 TOP_ARRAY:73 0.299128
R2_71 TOP_ARRAY:18 TOP_ARRAY:54 8
R2_72 TOP_ARRAY:18 TOP_ARRAY:73 0.299128
R2_73 TOP_ARRAY:18 XI37/xC0:T1 7.17123
R2_74 TOP_ARRAY:19 TOP_ARRAY:20 5.09821
R2_75 TOP_ARRAY:19 TOP_ARRAY:21 0.598233
R2_76 TOP_ARRAY:19 TOP_ARRAY:56 8.29913
R2_77 TOP_ARRAY:20 TOP_ARRAY:21 4.5
R2_78 TOP_ARRAY:20 TOP_ARRAY:22 0.598214
R2_79 TOP_ARRAY:21 TOP_ARRAY:23 0.598233
R2_80 TOP_ARRAY:22 TOP_ARRAY:23 4.5
R2_81 TOP_ARRAY:22 TOP_ARRAY:24 0.598214
R2_82 XI35/xC0:T1 TOP_ARRAY:73 6.95374
R2_83 TOP_ARRAY:23 TOP_ARRAY:25 0.598233
R2_84 XI13/xC0:T1 TOP_ARRAY:72 6.95374
R2_85 XI11/xC0:T1 TOP_ARRAY:71 6.95374
R2_86 TOP_ARRAY:24 TOP_ARRAY:25 4.5
R2_87 TOP_ARRAY:24 TOP_ARRAY:26 0.598214
R2_88 XI14/xC0:T1 TOP_ARRAY:70 6.95374
R2_89 TOP_ARRAY:25 TOP_ARRAY:27 0.598233
R2_90 XI10/xC0:T1 TOP_ARRAY:69 6.95374
R2_91 XI9/xC0:T1 TOP_ARRAY:68 6.95374
R2_92 TOP_ARRAY:26 TOP_ARRAY:27 4.5
R2_93 TOP_ARRAY:26 TOP_ARRAY:28 0.598214
R2_94 XI12/xC0:T1 TOP_ARRAY:67 6.95374
R2_95 TOP_ARRAY:27 TOP_ARRAY:29 0.598233
R2_96 XI8/xC0:T1 TOP_ARRAY:66 6.95374
R2_97 TOP_ARRAY:28 TOP_ARRAY:29 4.5
R2_98 TOP_ARRAY:28 TOP_ARRAY:30 0.598214
R2_99 XI7/xC0:T1 TOP_ARRAY:65 6.95374
R2_100 TOP_ARRAY:29 TOP_ARRAY:31 0.598233
R2_101 XI6/xC0:T1 TOP_ARRAY:64 6.95374
R2_102 TOP_ARRAY:30 TOP_ARRAY:31 4.5
R2_103 TOP_ARRAY:30 TOP_ARRAY:32 0.598214
R2_104 XI3/xC0:T1 TOP_ARRAY:63 6.95374
R2_105 TOP_ARRAY:31 TOP_ARRAY:33 0.598233
R2_106 XI5/xC0:T1 TOP_ARRAY:62 6.95374
R2_107 XI1/xC0:T1 TOP_ARRAY:61 6.95374
R2_108 TOP_ARRAY:32 TOP_ARRAY:33 4.5
R2_109 TOP_ARRAY:32 TOP_ARRAY:34 0.598214
R2_110 XI4/xC0:T1 TOP_ARRAY:60 6.95374
R2_111 TOP_ARRAY:33 TOP_ARRAY:35 0.598233
R2_112 XI2/xC0:T1 TOP_ARRAY:59 6.95374
R2_113 TOP_ARRAY:34 TOP_ARRAY:35 4.5
R2_114 TOP_ARRAY:34 TOP_ARRAY:36 0.598214
R2_115 XI34/xC0:T1 TOP_ARRAY:58 6.95374
R2_116 TOP_ARRAY:35 TOP_ARRAY:37 0.598233
R2_117 XI0/xC0:T1 TOP_ARRAY:57 6.95374
R2_118 XI36/xC0:T1 TOP_ARRAY:56 6.95374
R2_119 TOP_ARRAY:36 TOP_ARRAY:37 4.5
R2_120 TOP_ARRAY:36 TOP_ARRAY:38 0.598214
R2_121 TOP_ARRAY:37 TOP_ARRAY:39 0.598233
R2_122 TOP_ARRAY:38 TOP_ARRAY:39 4.5
R2_123 TOP_ARRAY:38 TOP_ARRAY:40 0.598214
R2_124 TOP_ARRAY:39 TOP_ARRAY:41 0.598233
R2_125 TOP_ARRAY:40 TOP_ARRAY:41 4.5
R2_126 TOP_ARRAY:40 TOP_ARRAY:42 0.598214
R2_127 TOP_ARRAY:41 TOP_ARRAY:43 0.598233
R2_128 TOP_ARRAY:42 TOP_ARRAY:43 4.5
R2_129 TOP_ARRAY:42 TOP_ARRAY:44 0.598214
R2_130 TOP_ARRAY:43 TOP_ARRAY:45 0.598233
R2_131 TOP_ARRAY:44 TOP_ARRAY:45 4.5
R2_132 TOP_ARRAY:44 TOP_ARRAY:46 0.598214
R2_133 TOP_ARRAY:45 TOP_ARRAY:47 0.598233
R2_134 TOP_ARRAY:46 TOP_ARRAY:47 4.5
R2_135 TOP_ARRAY:46 TOP_ARRAY:48 0.598214
R2_136 TOP_ARRAY:47 TOP_ARRAY:49 0.598233
R2_137 TOP_ARRAY:48 TOP_ARRAY:49 4.5
R2_138 TOP_ARRAY:48 TOP_ARRAY:50 0.598214
R2_139 TOP_ARRAY:49 TOP_ARRAY:51 0.598233
R2_140 TOP_ARRAY:50 TOP_ARRAY:51 4.5
R2_141 TOP_ARRAY:50 TOP_ARRAY:52 0.598214
R2_142 TOP_ARRAY:51 TOP_ARRAY:53 0.598233
R2_143 TOP_ARRAY:52 TOP_ARRAY:53 4.5
R2_144 TOP_ARRAY:52 TOP_ARRAY:55 0.598214
R2_145 TOP_ARRAY:53 TOP_ARRAY:54 0.598233
R2_146 TOP_ARRAY:54 TOP_ARRAY:55 4.5

*
* Instance Section
*
XXI0/xC0 XI0/xC0:T1 VSS09A cfmom_2t lr=2.29417e-06 nr=3 s=5e-08 spm=6 stm=4 w=1.2e-06
XXI1/xC0 XI1/xC0:T1 XI1/xC0:T2 cfmom_2t lr=2.29417e-06 nr=3 s=5e-08 spm=6 stm=4 w=1.2e-06
XXI2/xC0 XI2/xC0:T1 XI2/xC0:T2 cfmom_2t lr=2.29417e-06 nr=3 s=5e-08 spm=6 stm=4 w=1.2e-06
XXI3/xC0 XI3/xC0:T1 XI3/xC0:T2 cfmom_2t lr=2.29417e-06 nr=3 s=5e-08 spm=6 stm=4 w=1.2e-06
XXI4/xC0 XI4/xC0:T1 XI4/xC0:T2 cfmom_2t lr=2.29417e-06 nr=3 s=5e-08 spm=6 stm=4 w=1.2e-06
XXI5/xC0 XI5/xC0:T1 XI5/xC0:T2 cfmom_2t lr=2.29417e-06 nr=3 s=5e-08 spm=6 stm=4 w=1.2e-06
XXI6/xC0 XI6/xC0:T1 XI6/xC0:T2 cfmom_2t lr=2.29417e-06 nr=3 s=5e-08 spm=6 stm=4 w=1.2e-06
XXI7/xC0 XI7/xC0:T1 XI7/xC0:T2 cfmom_2t lr=2.29417e-06 nr=3 s=5e-08 spm=6 stm=4 w=1.2e-06
XXI8/xC0 XI8/xC0:T1 XI8/xC0:T2 cfmom_2t lr=2.29417e-06 nr=3 s=5e-08 spm=6 stm=4 w=1.2e-06
XXI9/xC0 XI9/xC0:T1 XI9/xC0:T2 cfmom_2t lr=2.29417e-06 nr=3 s=5e-08 spm=6 stm=4 w=1.2e-06
XXI10/xC0 XI10/xC0:T1 XI10/xC0:T2 cfmom_2t lr=2.29417e-06 nr=3 s=5e-08 spm=6 stm=4 w=1.2e-06
XXI11/xC0 XI11/xC0:T1 XI11/xC0:T2 cfmom_2t lr=2.29417e-06 nr=3 s=5e-08 spm=6 stm=4 w=1.2e-06
XXI12/xC0 XI12/xC0:T1 XI12/xC0:T2 cfmom_2t lr=2.29417e-06 nr=3 s=5e-08 spm=6 stm=4 w=1.2e-06
XXI13/xC0 XI13/xC0:T1 XI13/xC0:T2 cfmom_2t lr=2.29417e-06 nr=3 s=5e-08 spm=6 stm=4 w=1.2e-06
XXI14/xC0 XI14/xC0:T1 XI14/xC0:T2 cfmom_2t lr=2.29417e-06 nr=3 s=5e-08 spm=6 stm=4 w=1.2e-06
XXI34/xC0 XI34/xC0:T1 VSS09A cfmom_2t lr=2.29417e-06 nr=3 s=5e-08 spm=6 stm=4 w=1.2e-06
XXI35/xC0 XI35/xC0:T1 VSS09A cfmom_2t lr=2.29417e-06 nr=3 s=5e-08 spm=6 stm=4 w=1.2e-06
XXI36/xC0 XI36/xC0:T1 VSS09A cfmom_2t lr=2.29417e-06 nr=3 s=5e-08 spm=6 stm=4 w=1.2e-06
XXI37/xC0 XI37/xC0:T1 VSS09A cfmom_2t lr=2.29417e-06 nr=3 s=5e-08 spm=6 stm=4 w=1.2e-06

.ENDS

