*
*|DSPF 1.3
*|DESIGN ARRAY_CMP_T1
*|DATE "Wed Mar 17 08:06:00 2021"
*|VENDOR "Synopsys"
*|PROGRAM "StarRC"
*|VERSION "K-2015.06-SP1"
*|DIVIDER /
*|DELIMITER :
**FORMAT SPF
*

** COMMENTS

** OPERATING_TEMPERATURE 25
** GLOBAL_TEMPERATURE 25
** TCAD_GRD_FILE /raidj/user/t28/t28u25/etron/ADC_SAR4BIT/runLPE/cln28hpc+_1p09m+ut-alrdl_6x2z_typical.nxtgrd
**   TCAD_TIME_STAMP Thu Jun 25 12:48:01 2015
**   TCADGRD_VERSION 80
** HALF_NODE_SCALE_FACTOR 0.9


.SUBCKT ARRAY_CMP_T1 SL1A SL1B SL2A SL2B SL3A SL3B TOP_ARRAY VDD09A VSS09A

*|GROUND_NET 0

*|NET SL3B 0.00473287PF
*|P (SL3B O 0 0.589889 -0.614889)
*|I (XI14/xC0:T2 XI14/xC0 T2 B 0 1.46989 1.30989)
*|I (XI10/xC0:T2 XI10/xC0 T2 B 0 1.67989 1.30989)
*|I (XI5/xC0:T2 XI5/xC0 T2 B 0 3.14989 1.30989)
*|I (XI1/xC0:T2 XI1/xC0 T2 B 0 3.35989 1.30989)
Cg4_1 SL3B 0 1.1462e-16
Cg4_2 XI14/xC0:T2 0 5.83194e-19
Cg4_3 XI10/xC0:T2 0 1.10044e-18
Cg4_4 SL3B:1 0 1.99916e-17
Cg4_5 SL3B:2 0 6.2982e-17
Cg4_6 SL3B:3 0 6.12392e-17
Cg4_7 XI5/xC0:T2 0 3.64879e-17
Cg4_8 XI1/xC0:T2 0 8.00195e-17
R4_1 SL3B SL3B:3 3.05447
R4_2 XI14/xC0:T2 SL3B:3 43.9656
R4_3 XI10/xC0:T2 SL3B:2 43.8528
R4_4 SL3B:1 SL3B:2 5.10235
R4_5 SL3B:1 XI5/xC0:T2 43.8528
R4_6 SL3B:1 XI1/xC0:T2 44.6945
R4_7 SL3B:2 SL3B:3 0.728908

*|NET SL3A 0.00470733PF
*|P (SL3A O 0 0.589889 -0.444889)
*|I (XI13/xC0:T2 XI13/xC0 T2 B 0 1.04989 1.30989)
*|I (XI11/xC0:T2 XI11/xC0 T2 B 0 1.25989 1.30989)
*|I (XI4/xC0:T2 XI4/xC0 T2 B 0 3.56989 1.30989)
*|I (XI2/xC0:T2 XI2/xC0 T2 B 0 3.77989 1.30989)
C5_9 SL3A SL3B 2.23886e-16
C5_10 SL3A SL3B:3 1.29591e-17
C5_11 SL3A SL3B:2 1.47682e-17
C5_12 SL3A XI1/xC0:T2 1.29591e-17
C5_13 SL3A XI5/xC0:T2 1.47682e-17
Cg5_14 SL3A 0 2.26933e-16
C5_15 XI13/xC0:T2 SL3B 4.63994e-18
C5_16 XI13/xC0:T2 XI14/xC0:T2 3.91376e-18
C5_17 XI13/xC0:T2 SL3B:3 8.40261e-19
Cg5_18 XI13/xC0:T2 0 7.06889e-17
C5_19 XI11/xC0:T2 XI10/xC0:T2 4.25159e-18
C5_20 XI11/xC0:T2 XI14/xC0:T2 8.96647e-17
C5_21 XI11/xC0:T2 SL3B:3 5.90354e-17
Cg5_22 XI11/xC0:T2 0 6.44332e-17
C5_23 SL3A:1 SL3B 4.63994e-18
C5_24 SL3A:1 SL3B:1 5.82279e-17
C5_25 SL3A:1 XI1/xC0:T2 7.13013e-17
Cg5_26 SL3A:1 0 1.95814e-16
C5_27 SL3A:2 SL3B 4.63994e-18
C5_28 SL3A:2 SL3B:3 2.94831e-17
Cg5_29 SL3A:2 0 5.62705e-18
Cg5_30 SL3A:3 0 1.60657e-16
C5_31 XI4/xC0:T2 XI1/xC0:T2 4.8654e-17
C5_32 XI4/xC0:T2 XI5/xC0:T2 4.25159e-18
Cg5_33 XI4/xC0:T2 0 3.12267e-17
C5_34 XI2/xC0:T2 SL3B 4.63994e-18
C5_35 XI2/xC0:T2 XI1/xC0:T2 4.75402e-18
Cg5_36 XI2/xC0:T2 0 7.64099e-17
R5_8 SL3A SL3A:3 1.63894
R5_9 XI13/xC0:T2 SL3A:3 43.3156
R5_10 XI11/xC0:T2 SL3A:2 43.4554
R5_11 SL3A:1 SL3A:2 8.23031
R5_12 SL3A:1 XI4/xC0:T2 43.4554
R5_13 SL3A:1 XI2/xC0:T2 44.1064
R5_14 SL3A:2 SL3A:3 0.74821

*|NET SL2B 0.00280531PF
*|P (SL2B O 0 0.589889 -0.944889)
*|I (XI12/xC0:T2 XI12/xC0 T2 B 0 2.09989 1.30989)
*|I (XI6/xC0:T2 XI6/xC0 T2 B 0 2.72989 1.30989)
C3_37 SL2B SL3B 6.61481e-17
C3_38 SL2B XI14/xC0:T2 3.22883e-18
C3_39 SL2B XI10/xC0:T2 3.22883e-18
Cg3_40 SL2B 0 7.75426e-17
C3_41 XI12/xC0:T2 SL3B 1.48718e-17
C3_42 XI12/xC0:T2 XI10/xC0:T2 1.87802e-18
C3_43 XI12/xC0:T2 SL3B:3 2.20842e-19
C3_44 XI12/xC0:T2 SL3B:2 9.23797e-18
Cg3_45 XI12/xC0:T2 0 1.47862e-17
C3_46 XI6/xC0:T2 SL3B 1.77842e-17
C3_47 XI6/xC0:T2 XI1/xC0:T2 2.20842e-19
C3_48 XI6/xC0:T2 XI5/xC0:T2 1.05034e-17
Cg3_49 XI6/xC0:T2 0 1.79458e-17
C3_50 SL2B:1 XI5/xC0:T2 6.96762e-19
Cg3_51 SL2B:1 0 1.37027e-16
R3_15 SL2B SL2B:1 4.61843
R3_16 XI12/xC0:T2 SL2B:1 44.8129
R3_17 XI6/xC0:T2 SL2B:1 46.554

*|NET SL2A 0.00262467PF
*|P (SL2A O 0 0.589889 -0.834889)
*|I (XI9/xC0:T2 XI9/xC0 T2 B 0 1.88989 1.30989)
*|I (XI3/xC0:T2 XI3/xC0 T2 B 0 2.93989 1.30989)
C8_52 SL2A SL3B 1.711e-18
C8_53 SL2A SL2B 1.12963e-18
C8_54 SL2A SL3B:3 4.00039e-18
C8_55 SL2A SL3B:2 4.00039e-18
C8_56 SL2A SL2B:1 8.00078e-18
Cg8_57 SL2A 0 5.80845e-17
C8_58 SL2A:1 SL3B:2 4.02216e-17
C8_59 SL2A:1 SL2B:1 7.88373e-17
C8_60 SL2A:1 SL3B:1 2.7207e-17
C8_61 SL2A:1 XI12/xC0:T2 5.75642e-17
C8_62 SL2A:1 XI5/xC0:T2 1.08028e-16
Cg8_63 SL2A:1 0 1.16136e-16
C8_64 XI9/xC0:T2 XI10/xC0:T2 8.39098e-17
C8_65 XI9/xC0:T2 SL3B 4.37963e-19
C8_66 XI9/xC0:T2 SL2B 1.79327e-18
C8_67 XI9/xC0:T2 XI14/xC0:T2 2.09176e-18
C8_68 XI9/xC0:T2 SL3B:3 3.18616e-18
C8_69 XI9/xC0:T2 SL3B:2 4.06227e-17
C8_70 XI9/xC0:T2 SL2B:1 4.44412e-18
C8_71 XI9/xC0:T2 XI12/xC0:T2 2.62569e-17
Cg8_72 XI9/xC0:T2 0 7.12051e-18
C8_73 XI3/xC0:T2 SL3B 2.07119e-18
C8_74 XI3/xC0:T2 XI6/xC0:T2 8.94761e-17
C8_75 XI3/xC0:T2 SL2B:1 7.33596e-17
C8_76 XI3/xC0:T2 XI1/xC0:T2 5.27791e-18
C8_77 XI3/xC0:T2 XI5/xC0:T2 2.95193e-17
Cg8_78 XI3/xC0:T2 0 5.40753e-18
R8_18 SL2A SL2A:1 3.5787
R8_19 SL2A:1 XI9/xC0:T2 28.2633
R8_20 SL2A:1 XI3/xC0:T2 31.1628

*|NET SL1B 0.00162784PF
*|P (SL1B O 0 0.589889 -1.27489)
*|I (XI8/xC0:T2 XI8/xC0 T2 B 0 2.30989 1.30989)
C2_79 SL1B SL2B 7.38721e-17
C2_80 SL1B XI6/xC0:T2 3.22538e-18
C2_81 SL1B SL2B:1 5.50353e-17
C2_82 SL1B XI12/xC0:T2 5.71751e-17
Cg2_83 SL1B 0 2.93251e-16
C2_84 XI8/xC0:T2 SL2B 1.8808e-17
C2_85 XI8/xC0:T2 XI6/xC0:T2 2.86268e-18
C2_86 XI8/xC0:T2 SL2B:1 7.88274e-17
C2_87 XI8/xC0:T2 XI12/xC0:T2 2.50752e-17
Cg2_88 XI8/xC0:T2 0 3.93718e-17
R2_21 SL1B XI8/xC0:T2 50.7803

*|NET SL1A 0.00148602PF
*|P (SL1A O 0 0.589889 -1.16489)
*|I (XI7/xC0:T2 XI7/xC0 T2 B 0 2.51989 1.30989)
C9_89 SL1A XI9/xC0:T2 2.42198e-18
C9_90 SL1A SL2B 1.04884e-18
C9_91 SL1A SL2A 8.12564e-17
C9_92 SL1A XI3/xC0:T2 2.42198e-18
C9_93 SL1A SL1B 5.6605e-18
C9_94 SL1A XI8/xC0:T2 3.61813e-19
C9_95 SL1A SL2B:1 7.5926e-19
C9_96 SL1A XI12/xC0:T2 7.5926e-19
Cg9_97 SL1A 0 1.8409e-16
C9_98 XI7/xC0:T2 XI9/xC0:T2 1.02024e-17
C9_99 XI7/xC0:T2 SL2B 1.98192e-18
C9_100 XI7/xC0:T2 SL2A 2.56536e-17
C9_101 XI7/xC0:T2 XI3/xC0:T2 2.10168e-17
C9_102 XI7/xC0:T2 SL1B 7.08515e-17
C9_103 XI7/xC0:T2 XI6/xC0:T2 8.82652e-17
C9_104 XI7/xC0:T2 XI8/xC0:T2 1.02643e-16
C9_105 XI7/xC0:T2 SL2B:1 7.58723e-17
C9_106 XI7/xC0:T2 XI12/xC0:T2 3.92417e-18
Cg9_107 XI7/xC0:T2 0 5.95461e-18
R9_22 SL1A XI7/xC0:T2 34.4409

*|NET TOP_ARRAY 0.0167442PF
*|P (TOP_ARRAY O 0 0.627889 2.56489)
*|I (XI37/xC0:T1 XI37/xC0 T1 B 0 4.32244 1.63489)
*|I (XI35/xC0:T1 XI35/xC0 T1 B 0 3.90244 1.63489)
*|I (XI34/xC0:T1 XI34/xC0 T1 B 0 4.11244 1.63489)
*|I (XI0/xC0:T1 XI0/xC0 T1 B 0 0.542444 1.63489)
*|I (XI36/xC0:T1 XI36/xC0 T1 B 0 0.752444 1.63489)
*|I (XI13/xC0:T1 XI13/xC0 T1 B 0 0.962444 1.63489)
*|I (XI11/xC0:T1 XI11/xC0 T1 B 0 1.17244 1.63489)
*|I (XI14/xC0:T1 XI14/xC0 T1 B 0 1.38244 1.63489)
*|I (XI10/xC0:T1 XI10/xC0 T1 B 0 1.59244 1.63489)
*|I (XI9/xC0:T1 XI9/xC0 T1 B 0 1.80244 1.63489)
*|I (XI12/xC0:T1 XI12/xC0 T1 B 0 2.01244 1.63489)
*|I (XI8/xC0:T1 XI8/xC0 T1 B 0 2.22244 1.63489)
*|I (XI7/xC0:T1 XI7/xC0 T1 B 0 2.43244 1.63489)
*|I (XI6/xC0:T1 XI6/xC0 T1 B 0 2.64244 1.63489)
*|I (XI3/xC0:T1 XI3/xC0 T1 B 0 2.85244 1.63489)
*|I (XI5/xC0:T1 XI5/xC0 T1 B 0 3.06244 1.63489)
*|I (XI1/xC0:T1 XI1/xC0 T1 B 0 3.27244 1.63489)
*|I (XI4/xC0:T1 XI4/xC0 T1 B 0 3.48244 1.63489)
*|I (XI2/xC0:T1 XI2/xC0 T1 B 0 3.69244 1.63489)
Cg7_108 TOP_ARRAY 0 2.96242e-17
C7_109 TOP_ARRAY:18 XI9/xC0:T2 4.18589e-18
C7_110 TOP_ARRAY:18 XI10/xC0:T2 4.18589e-18
C7_111 TOP_ARRAY:18 SL2A 7.07314e-20
C7_112 TOP_ARRAY:18 XI3/xC0:T2 4.18589e-18
C7_113 TOP_ARRAY:18 XI14/xC0:T2 3.67749e-18
C7_114 TOP_ARRAY:18 XI6/xC0:T2 4.18589e-18
C7_115 TOP_ARRAY:18 XI7/xC0:T2 4.18589e-18
C7_116 TOP_ARRAY:18 XI2/xC0:T2 4.18589e-18
C7_117 TOP_ARRAY:18 XI11/xC0:T2 4.18589e-18
C7_118 TOP_ARRAY:18 XI8/xC0:T2 4.18589e-18
C7_119 TOP_ARRAY:18 XI4/xC0:T2 4.18589e-18
C7_120 TOP_ARRAY:18 XI13/xC0:T2 4.18589e-18
C7_121 TOP_ARRAY:18 SL3B:3 5.08409e-19
C7_122 TOP_ARRAY:18 XI1/xC0:T2 4.18589e-18
C7_123 TOP_ARRAY:18 XI12/xC0:T2 4.18589e-18
C7_124 TOP_ARRAY:18 XI5/xC0:T2 4.18589e-18
Cg7_125 TOP_ARRAY:18 0 3.55795e-16
Cg7_126 TOP_ARRAY:19 0 4.67672e-16
Cg7_127 TOP_ARRAY:20 0 6.46288e-16
Cg7_128 TOP_ARRAY:21 0 2.70249e-16
Cg7_129 TOP_ARRAY:22 0 2.73573e-16
Cg7_130 TOP_ARRAY:23 0 2.70521e-16
C7_131 TOP_ARRAY:24 SL3A:1 2.58197e-16
Cg7_132 TOP_ARRAY:24 0 1.53021e-17
C7_133 TOP_ARRAY:25 XI4/xC0:T2 1.3386e-16
C7_134 TOP_ARRAY:25 XI2/xC0:T2 1.3386e-16
Cg7_135 TOP_ARRAY:25 0 2.80021e-18
C7_136 TOP_ARRAY:26 SL3B:1 1.29098e-16
C7_137 TOP_ARRAY:26 XI2/xC0:T2 1.29098e-16
Cg7_138 TOP_ARRAY:26 0 1.52795e-17
C7_139 TOP_ARRAY:27 XI1/xC0:T2 1.3386e-16
C7_140 TOP_ARRAY:27 XI2/xC0:T2 1.3386e-16
Cg7_141 TOP_ARRAY:27 0 2.80042e-18
C7_142 TOP_ARRAY:28 SL3B:1 1.24533e-16
C7_143 TOP_ARRAY:28 XI5/xC0:T2 1.22047e-17
C7_144 TOP_ARRAY:28 XI4/xC0:T2 1.29098e-16
Cg7_145 TOP_ARRAY:28 0 7.63975e-18
C7_146 TOP_ARRAY:29 XI5/xC0:T2 1.3386e-16
C7_147 TOP_ARRAY:29 XI4/xC0:T2 1.3386e-16
Cg7_148 TOP_ARRAY:29 0 2.80042e-18
C7_149 TOP_ARRAY:30 SL3B:1 1.21459e-16
C7_150 TOP_ARRAY:30 XI3/xC0:T2 1.16525e-16
Cg7_151 TOP_ARRAY:30 0 3.55075e-17
C7_152 TOP_ARRAY:31 XI3/xC0:T2 1.33448e-16
C7_153 TOP_ARRAY:31 XI1/xC0:T2 1.3386e-16
Cg7_154 TOP_ARRAY:31 0 3.21315e-18
C7_155 TOP_ARRAY:32 SL2A:1 1.30956e-17
C7_156 TOP_ARRAY:32 SL3B:1 1.29098e-16
C7_157 TOP_ARRAY:32 SL2B:1 1.29098e-16
Cg7_158 TOP_ARRAY:32 0 2.21404e-18
C7_159 TOP_ARRAY:33 XI6/xC0:T2 1.3386e-16
C7_160 TOP_ARRAY:33 XI3/xC0:T2 8.25416e-19
C7_161 TOP_ARRAY:33 XI5/xC0:T2 1.3386e-16
Cg7_162 TOP_ARRAY:33 0 1.97486e-18
C7_163 TOP_ARRAY:34 SL2A:1 1.16525e-16
C7_164 TOP_ARRAY:34 XI7/xC0:T2 4.94871e-19
C7_165 TOP_ARRAY:34 XI6/xC0:T2 1.29098e-16
C7_166 TOP_ARRAY:34 XI3/xC0:T2 1.21085e-17
Cg7_167 TOP_ARRAY:34 0 1.52799e-17
C7_168 TOP_ARRAY:35 SL2A:1 1.20854e-16
C7_169 TOP_ARRAY:35 XI7/xC0:T2 4.12689e-19
C7_170 TOP_ARRAY:35 XI6/xC0:T2 1.3386e-16
C7_171 TOP_ARRAY:35 XI3/xC0:T2 1.25936e-17
Cg7_172 TOP_ARRAY:35 0 2.80037e-18
C7_173 TOP_ARRAY:36 SL1A 1.16925e-16
C7_174 TOP_ARRAY:36 SL1B 1.29098e-16
C7_175 TOP_ARRAY:36 XI7/xC0:T2 1.22039e-17
Cg7_176 TOP_ARRAY:36 0 1.52804e-17
C7_177 TOP_ARRAY:37 SL1A 1.21124e-16
C7_178 TOP_ARRAY:37 XI8/xC0:T2 1.3386e-16
C7_179 TOP_ARRAY:37 XI7/xC0:T2 1.27364e-17
Cg7_180 TOP_ARRAY:37 0 2.80035e-18
C7_181 TOP_ARRAY:38 SL1A 1.28634e-16
C7_182 TOP_ARRAY:38 SL2B:1 1.29098e-16
Cg7_183 TOP_ARRAY:38 0 1.57598e-17
C7_184 TOP_ARRAY:39 XI12/xC0:T2 1.3386e-16
C7_185 TOP_ARRAY:39 XI7/xC0:T2 1.33448e-16
Cg7_186 TOP_ARRAY:39 0 3.21314e-18
C7_187 TOP_ARRAY:40 XI9/xC0:T2 4.93543e-19
C7_188 TOP_ARRAY:40 XI12/xC0:T2 1.29098e-16
C7_189 TOP_ARRAY:40 XI8/xC0:T2 1.29098e-16
Cg7_190 TOP_ARRAY:40 0 1.4801e-17
C7_191 TOP_ARRAY:41 SL2A:1 1.21124e-16
C7_192 TOP_ARRAY:41 XI9/xC0:T2 1.27364e-17
C7_193 TOP_ARRAY:41 XI8/xC0:T2 1.3386e-16
Cg7_194 TOP_ARRAY:41 0 2.80044e-18
C7_195 TOP_ARRAY:42 SL2A:1 1.29127e-16
C7_196 TOP_ARRAY:42 SL3B:2 1.29098e-16
Cg7_197 TOP_ARRAY:42 0 1.52808e-17
C7_198 TOP_ARRAY:43 XI9/xC0:T2 1.3386e-16
C7_199 TOP_ARRAY:43 XI12/xC0:T2 1.3386e-16
Cg7_200 TOP_ARRAY:43 0 2.80036e-18
Cg7_201 XI0/xC0:T1 0 1.8041e-17
C7_202 TOP_ARRAY:44 XI9/xC0:T2 1.28634e-16
C7_203 TOP_ARRAY:44 SL3B:3 1.29098e-16
Cg7_204 TOP_ARRAY:44 0 1.57593e-17
C7_205 TOP_ARRAY:45 XI14/xC0:T2 1.3386e-16
C7_206 TOP_ARRAY:45 XI10/xC0:T2 1.3386e-16
Cg7_207 TOP_ARRAY:45 0 2.80034e-18
C7_208 TOP_ARRAY:46 XI10/xC0:T2 1.29098e-16
C7_209 TOP_ARRAY:46 SL3B:3 2.54565e-18
C7_210 TOP_ARRAY:46 SL3A:2 1.29098e-16
Cg7_211 TOP_ARRAY:46 0 1.27338e-17
C7_212 TOP_ARRAY:47 XI11/xC0:T2 1.3386e-16
C7_213 TOP_ARRAY:47 XI10/xC0:T2 1.3386e-16
Cg7_214 TOP_ARRAY:47 0 2.80042e-18
C7_215 TOP_ARRAY:48 XI14/xC0:T2 1.26553e-16
C7_216 TOP_ARRAY:48 SL3A:2 1.29098e-16
Cg7_217 TOP_ARRAY:48 0 1.78251e-17
C7_218 TOP_ARRAY:49 XI13/xC0:T2 1.3386e-16
C7_219 TOP_ARRAY:49 XI14/xC0:T2 1.3386e-16
Cg7_220 TOP_ARRAY:49 0 2.80042e-18
C7_221 TOP_ARRAY:50 SL3A:3 1.29098e-16
Cg7_222 TOP_ARRAY:50 0 1.44394e-16
C7_223 TOP_ARRAY:51 XI11/xC0:T2 1.3386e-16
Cg7_224 TOP_ARRAY:51 0 1.36661e-16
C7_225 TOP_ARRAY:52 XI13/xC0:T2 1.29098e-16
Cg7_226 TOP_ARRAY:52 0 1.43723e-16
C7_227 TOP_ARRAY:53 XI13/xC0:T2 1.3386e-16
Cg7_228 TOP_ARRAY:53 0 1.36645e-16
C7_229 TOP_ARRAY:54 XI9/xC0:T2 3.4074e-18
C7_230 TOP_ARRAY:54 XI10/xC0:T2 4.12941e-19
C7_231 TOP_ARRAY:54 SL2A 1.67253e-19
C7_232 TOP_ARRAY:54 XI3/xC0:T2 3.4074e-18
C7_233 TOP_ARRAY:54 XI14/xC0:T2 4.12941e-19
C7_234 TOP_ARRAY:54 XI6/xC0:T2 4.12941e-19
C7_235 TOP_ARRAY:54 XI7/xC0:T2 3.4074e-18
C7_236 TOP_ARRAY:54 XI2/xC0:T2 3.4074e-18
C7_237 TOP_ARRAY:54 XI11/xC0:T2 3.0046e-18
C7_238 TOP_ARRAY:54 XI8/xC0:T2 3.4074e-18
C7_239 TOP_ARRAY:54 XI4/xC0:T2 3.4074e-18
C7_240 TOP_ARRAY:54 SL3A:2 4.02802e-19
C7_241 TOP_ARRAY:54 XI13/xC0:T2 3.4074e-18
C7_242 TOP_ARRAY:54 SL3B:3 2.99446e-18
C7_243 TOP_ARRAY:54 SL3B:2 2.99446e-18
C7_244 TOP_ARRAY:54 SL2B:1 2.99446e-18
C7_245 TOP_ARRAY:54 XI1/xC0:T2 3.4074e-18
C7_246 TOP_ARRAY:54 XI12/xC0:T2 3.4074e-18
C7_247 TOP_ARRAY:54 XI5/xC0:T2 3.4074e-18
Cg7_248 TOP_ARRAY:54 0 4.815e-16
C7_249 TOP_ARRAY:55 XI9/xC0:T2 3.91184e-18
C7_250 TOP_ARRAY:55 XI10/xC0:T2 4.93127e-19
C7_251 TOP_ARRAY:55 SL2A 5.44396e-20
C7_252 TOP_ARRAY:55 XI3/xC0:T2 3.79056e-18
C7_253 TOP_ARRAY:55 SL1B 3.47801e-18
C7_254 TOP_ARRAY:55 XI6/xC0:T2 4.93127e-19
C7_255 TOP_ARRAY:55 XI7/xC0:T2 3.97114e-18
C7_256 TOP_ARRAY:55 XI2/xC0:T2 3.97114e-18
C7_257 TOP_ARRAY:55 XI11/xC0:T2 4.93127e-19
C7_258 TOP_ARRAY:55 XI8/xC0:T2 4.93127e-19
C7_259 TOP_ARRAY:55 XI4/xC0:T2 3.97114e-18
C7_260 TOP_ARRAY:55 SL3A:2 3.47801e-18
C7_261 TOP_ARRAY:55 XI13/xC0:T2 3.97114e-18
C7_262 TOP_ARRAY:55 SL3B:3 3.97114e-18
C7_263 TOP_ARRAY:55 SL3B:2 3.47801e-18
C7_264 TOP_ARRAY:55 SL2B:1 3.47801e-18
C7_265 TOP_ARRAY:55 XI1/xC0:T2 3.97114e-18
C7_266 TOP_ARRAY:55 XI12/xC0:T2 3.97114e-18
C7_267 TOP_ARRAY:55 XI5/xC0:T2 3.97114e-18
Cg7_268 TOP_ARRAY:55 0 5.46047e-16
Cg7_269 TOP_ARRAY:56 0 5.33282e-16
Cg7_270 TOP_ARRAY:57 0 2.66468e-16
C7_271 TOP_ARRAY:58 XI2/xC0:T2 1.31667e-16
Cg7_272 TOP_ARRAY:58 0 1.34801e-16
C7_273 TOP_ARRAY:59 XI4/xC0:T2 1.31667e-16
C7_274 TOP_ARRAY:59 XI2/xC0:T2 1.31667e-16
Cg7_275 TOP_ARRAY:59 0 3.13363e-18
C7_276 TOP_ARRAY:60 XI1/xC0:T2 1.31667e-16
C7_277 TOP_ARRAY:60 XI4/xC0:T2 1.31667e-16
Cg7_278 TOP_ARRAY:60 0 3.13363e-18
C7_279 TOP_ARRAY:61 XI5/xC0:T2 1.31667e-16
C7_280 TOP_ARRAY:61 XI1/xC0:T2 1.31667e-16
Cg7_281 TOP_ARRAY:61 0 3.13363e-18
C7_282 TOP_ARRAY:62 XI5/xC0:T2 1.31667e-16
C7_283 TOP_ARRAY:62 XI3/xC0:T2 1.31667e-16
Cg7_284 TOP_ARRAY:62 0 3.13363e-18
C7_285 TOP_ARRAY:63 XI6/xC0:T2 1.31667e-16
C7_286 TOP_ARRAY:63 XI3/xC0:T2 1.31667e-16
Cg7_287 TOP_ARRAY:63 0 3.13363e-18
C7_288 TOP_ARRAY:64 XI7/xC0:T2 1.31667e-16
C7_289 TOP_ARRAY:64 XI6/xC0:T2 1.31667e-16
Cg7_290 TOP_ARRAY:64 0 3.13363e-18
C7_291 TOP_ARRAY:65 XI8/xC0:T2 1.31667e-16
C7_292 TOP_ARRAY:65 XI7/xC0:T2 1.31667e-16
Cg7_293 TOP_ARRAY:65 0 3.13363e-18
C7_294 TOP_ARRAY:66 XI12/xC0:T2 1.31667e-16
C7_295 TOP_ARRAY:66 XI8/xC0:T2 1.31667e-16
Cg7_296 TOP_ARRAY:66 0 3.13363e-18
C7_297 TOP_ARRAY:67 XI12/xC0:T2 1.31667e-16
C7_298 TOP_ARRAY:67 XI9/xC0:T2 1.31667e-16
Cg7_299 TOP_ARRAY:67 0 3.13363e-18
C7_300 TOP_ARRAY:68 XI10/xC0:T2 1.31667e-16
C7_301 TOP_ARRAY:68 XI9/xC0:T2 1.31667e-16
Cg7_302 TOP_ARRAY:68 0 3.13363e-18
C7_303 TOP_ARRAY:69 XI14/xC0:T2 1.31667e-16
C7_304 TOP_ARRAY:69 XI10/xC0:T2 1.31667e-16
Cg7_305 TOP_ARRAY:69 0 3.13363e-18
C7_306 TOP_ARRAY:70 XI11/xC0:T2 1.31667e-16
C7_307 TOP_ARRAY:70 XI14/xC0:T2 1.31667e-16
Cg7_308 TOP_ARRAY:70 0 3.13363e-18
C7_309 TOP_ARRAY:71 XI13/xC0:T2 1.31667e-16
C7_310 TOP_ARRAY:71 XI11/xC0:T2 1.31667e-16
Cg7_311 TOP_ARRAY:71 0 3.13363e-18
C7_312 TOP_ARRAY:72 XI13/xC0:T2 1.31667e-16
Cg7_313 TOP_ARRAY:72 0 1.34801e-16
Cg7_314 TOP_ARRAY:73 0 2.66671e-16
R7_23 TOP_ARRAY:1 TOP_ARRAY:21 8
R7_24 TOP_ARRAY:1 TOP_ARRAY:56 0.299128
R7_25 TOP_ARRAY:1 TOP_ARRAY:57 0.299128
R7_26 TOP_ARRAY:2 TOP_ARRAY:23 8
R7_27 TOP_ARRAY:2 TOP_ARRAY:57 0.299128
R7_28 TOP_ARRAY:2 TOP_ARRAY:58 0.299128
R7_29 TOP_ARRAY:3 TOP_ARRAY:25 8
R7_30 TOP_ARRAY:3 TOP_ARRAY:58 0.299128
R7_31 TOP_ARRAY:3 TOP_ARRAY:59 0.299128
R7_32 TOP_ARRAY:4 TOP_ARRAY:27 8
R7_33 TOP_ARRAY:4 TOP_ARRAY:59 0.299128
R7_34 TOP_ARRAY:4 TOP_ARRAY:60 0.299128
R7_35 TOP_ARRAY:5 TOP_ARRAY:29 8
R7_36 TOP_ARRAY:5 TOP_ARRAY:60 0.299128
R7_37 TOP_ARRAY:5 TOP_ARRAY:61 0.299128
R7_38 TOP_ARRAY:6 TOP_ARRAY:31 8
R7_39 TOP_ARRAY:6 TOP_ARRAY:61 0.299128
R7_40 TOP_ARRAY:6 TOP_ARRAY:62 0.299128
R7_41 TOP_ARRAY:7 TOP_ARRAY:33 8
R7_42 TOP_ARRAY:7 TOP_ARRAY:62 0.299128
R7_43 TOP_ARRAY:7 TOP_ARRAY:63 0.299128
R7_44 TOP_ARRAY:8 TOP_ARRAY:35 8
R7_45 TOP_ARRAY:8 TOP_ARRAY:63 0.299128
R7_46 TOP_ARRAY:8 TOP_ARRAY:64 0.299128
R7_47 TOP_ARRAY:9 TOP_ARRAY:37 8
R7_48 TOP_ARRAY:9 TOP_ARRAY:64 0.299128
R7_49 TOP_ARRAY:9 TOP_ARRAY:65 0.299128
R7_50 TOP_ARRAY:10 TOP_ARRAY:39 8
R7_51 TOP_ARRAY:10 TOP_ARRAY:65 0.299128
R7_52 TOP_ARRAY:10 TOP_ARRAY:66 0.299128
R7_53 TOP_ARRAY:11 TOP_ARRAY:41 8
R7_54 TOP_ARRAY:11 TOP_ARRAY:66 0.299128
R7_55 TOP_ARRAY:11 TOP_ARRAY:67 0.299128
R7_56 TOP_ARRAY:12 TOP_ARRAY:43 8
R7_57 TOP_ARRAY:12 TOP_ARRAY:67 0.299128
R7_58 TOP_ARRAY:12 TOP_ARRAY:68 0.299128
R7_59 TOP_ARRAY:13 TOP_ARRAY:45 8
R7_60 TOP_ARRAY:13 TOP_ARRAY:68 0.299128
R7_61 TOP_ARRAY:13 TOP_ARRAY:69 0.299128
R7_62 TOP_ARRAY:14 TOP_ARRAY:47 8
R7_63 TOP_ARRAY:14 TOP_ARRAY:69 0.299128
R7_64 TOP_ARRAY:14 TOP_ARRAY:70 0.299128
R7_65 TOP_ARRAY:15 TOP_ARRAY:49 8
R7_66 TOP_ARRAY:15 TOP_ARRAY:70 0.299128
R7_67 TOP_ARRAY:15 TOP_ARRAY:71 0.299128
R7_68 TOP_ARRAY TOP_ARRAY:55 24
R7_69 TOP_ARRAY:16 TOP_ARRAY:51 8
R7_70 TOP_ARRAY:16 TOP_ARRAY:71 0.299128
R7_71 TOP_ARRAY:16 TOP_ARRAY:72 0.299128
R7_72 TOP_ARRAY:17 TOP_ARRAY:53 8
R7_73 TOP_ARRAY:17 TOP_ARRAY:72 0.299128
R7_74 TOP_ARRAY:17 TOP_ARRAY:73 0.299128
R7_75 TOP_ARRAY:18 TOP_ARRAY:54 8
R7_76 TOP_ARRAY:18 TOP_ARRAY:73 0.299128
R7_77 TOP_ARRAY:18 XI0/xC0:T1 7.17123
R7_78 TOP_ARRAY:19 TOP_ARRAY:20 5.09824
R7_79 TOP_ARRAY:19 TOP_ARRAY:21 0.598226
R7_80 TOP_ARRAY:19 TOP_ARRAY:56 8.29913
R7_81 XI37/xC0:T1 TOP_ARRAY:56 6.95374
R7_82 TOP_ARRAY:20 TOP_ARRAY:21 4.5
R7_83 TOP_ARRAY:20 TOP_ARRAY:22 0.598238
R7_84 TOP_ARRAY:21 TOP_ARRAY:23 0.598226
R7_85 TOP_ARRAY:22 TOP_ARRAY:23 4.5
R7_86 TOP_ARRAY:22 TOP_ARRAY:24 0.598238
R7_87 TOP_ARRAY:23 TOP_ARRAY:25 0.598226
R7_88 TOP_ARRAY:24 TOP_ARRAY:25 4.5
R7_89 TOP_ARRAY:24 TOP_ARRAY:26 0.598238
R7_90 TOP_ARRAY:25 TOP_ARRAY:27 0.598226
R7_91 TOP_ARRAY:26 TOP_ARRAY:27 4.5
R7_92 TOP_ARRAY:26 TOP_ARRAY:28 0.598238
R7_93 TOP_ARRAY:27 TOP_ARRAY:29 0.598226
R7_94 TOP_ARRAY:28 TOP_ARRAY:29 4.5
R7_95 TOP_ARRAY:28 TOP_ARRAY:30 0.598238
R7_96 TOP_ARRAY:29 TOP_ARRAY:31 0.598226
R7_97 TOP_ARRAY:30 TOP_ARRAY:31 4.5
R7_98 TOP_ARRAY:30 TOP_ARRAY:32 0.598238
R7_99 TOP_ARRAY:31 TOP_ARRAY:33 0.598226
R7_100 TOP_ARRAY:32 TOP_ARRAY:33 4.5
R7_101 TOP_ARRAY:32 TOP_ARRAY:34 0.598238
R7_102 TOP_ARRAY:33 TOP_ARRAY:35 0.598226
R7_103 XI35/xC0:T1 TOP_ARRAY:58 6.95374
R7_104 TOP_ARRAY:34 TOP_ARRAY:35 4.5
R7_105 TOP_ARRAY:34 TOP_ARRAY:36 0.598238
R7_106 TOP_ARRAY:35 TOP_ARRAY:37 0.598226
R7_107 TOP_ARRAY:36 TOP_ARRAY:37 4.5
R7_108 TOP_ARRAY:36 TOP_ARRAY:38 0.598238
R7_109 XI34/xC0:T1 TOP_ARRAY:57 6.95374
R7_110 TOP_ARRAY:37 TOP_ARRAY:39 0.598226
R7_111 TOP_ARRAY:38 TOP_ARRAY:39 4.5
R7_112 TOP_ARRAY:38 TOP_ARRAY:40 0.598238
R7_113 TOP_ARRAY:39 TOP_ARRAY:41 0.598226
R7_114 TOP_ARRAY:40 TOP_ARRAY:41 4.5
R7_115 TOP_ARRAY:40 TOP_ARRAY:42 0.598238
R7_116 TOP_ARRAY:41 TOP_ARRAY:43 0.598226
R7_117 TOP_ARRAY:42 TOP_ARRAY:43 4.5
R7_118 TOP_ARRAY:42 TOP_ARRAY:44 0.598238
R7_119 TOP_ARRAY:43 TOP_ARRAY:45 0.598226
R7_120 TOP_ARRAY:44 TOP_ARRAY:45 4.5
R7_121 TOP_ARRAY:44 TOP_ARRAY:46 0.598238
R7_122 TOP_ARRAY:45 TOP_ARRAY:47 0.598226
R7_123 TOP_ARRAY:46 TOP_ARRAY:47 4.5
R7_124 TOP_ARRAY:46 TOP_ARRAY:48 0.598238
R7_125 XI36/xC0:T1 TOP_ARRAY:73 6.95374
R7_126 TOP_ARRAY:47 TOP_ARRAY:49 0.598226
R7_127 TOP_ARRAY:48 TOP_ARRAY:49 4.5
R7_128 TOP_ARRAY:48 TOP_ARRAY:50 0.598238
R7_129 TOP_ARRAY:49 TOP_ARRAY:51 0.598226
R7_130 XI13/xC0:T1 TOP_ARRAY:72 6.95374
R7_131 TOP_ARRAY:50 TOP_ARRAY:51 4.5
R7_132 TOP_ARRAY:50 TOP_ARRAY:52 0.598238
R7_133 TOP_ARRAY:51 TOP_ARRAY:53 0.598226
R7_134 TOP_ARRAY:52 TOP_ARRAY:53 4.5
R7_135 TOP_ARRAY:52 TOP_ARRAY:55 0.598238
R7_136 TOP_ARRAY:53 TOP_ARRAY:54 0.598226
R7_137 TOP_ARRAY:54 TOP_ARRAY:55 4.5
R7_138 XI11/xC0:T1 TOP_ARRAY:71 6.95374
R7_139 XI14/xC0:T1 TOP_ARRAY:70 6.95374
R7_140 XI10/xC0:T1 TOP_ARRAY:69 6.95374
R7_141 XI9/xC0:T1 TOP_ARRAY:68 6.95374
R7_142 XI12/xC0:T1 TOP_ARRAY:67 6.95374
R7_143 XI8/xC0:T1 TOP_ARRAY:66 6.95374
R7_144 XI7/xC0:T1 TOP_ARRAY:65 6.95374
R7_145 XI6/xC0:T1 TOP_ARRAY:64 6.95374
R7_146 XI3/xC0:T1 TOP_ARRAY:63 6.95374
R7_147 XI5/xC0:T1 TOP_ARRAY:62 6.95374
R7_148 TOP_ARRAY:59 XI2/xC0:T1 6.95374
R7_149 TOP_ARRAY:60 XI4/xC0:T1 6.95374
R7_150 TOP_ARRAY:61 XI1/xC0:T1 6.95374

*
* Instance Section
*
XXI0/xC0 XI0/xC0:T1 VSS09A cfmom_2t lr=2.29417e-06 nr=3 s=5e-08 spm=6 stm=4 w=1.2e-06
XXI1/xC0 XI1/xC0:T1 XI1/xC0:T2 cfmom_2t lr=2.29417e-06 nr=3 s=5e-08 spm=6 stm=4 w=1.2e-06
XXI2/xC0 XI2/xC0:T1 XI2/xC0:T2 cfmom_2t lr=2.29417e-06 nr=3 s=5e-08 spm=6 stm=4 w=1.2e-06
XXI3/xC0 XI3/xC0:T1 XI3/xC0:T2 cfmom_2t lr=2.29417e-06 nr=3 s=5e-08 spm=6 stm=4 w=1.2e-06
XXI4/xC0 XI4/xC0:T1 XI4/xC0:T2 cfmom_2t lr=2.29417e-06 nr=3 s=5e-08 spm=6 stm=4 w=1.2e-06
XXI5/xC0 XI5/xC0:T1 XI5/xC0:T2 cfmom_2t lr=2.29417e-06 nr=3 s=5e-08 spm=6 stm=4 w=1.2e-06
XXI6/xC0 XI6/xC0:T1 XI6/xC0:T2 cfmom_2t lr=2.29417e-06 nr=3 s=5e-08 spm=6 stm=4 w=1.2e-06
XXI7/xC0 XI7/xC0:T1 XI7/xC0:T2 cfmom_2t lr=2.29417e-06 nr=3 s=5e-08 spm=6 stm=4 w=1.2e-06
XXI8/xC0 XI8/xC0:T1 XI8/xC0:T2 cfmom_2t lr=2.29417e-06 nr=3 s=5e-08 spm=6 stm=4 w=1.2e-06
XXI9/xC0 XI9/xC0:T1 XI9/xC0:T2 cfmom_2t lr=2.29417e-06 nr=3 s=5e-08 spm=6 stm=4 w=1.2e-06
XXI10/xC0 XI10/xC0:T1 XI10/xC0:T2 cfmom_2t lr=2.29417e-06 nr=3 s=5e-08 spm=6 stm=4 w=1.2e-06
XXI11/xC0 XI11/xC0:T1 XI11/xC0:T2 cfmom_2t lr=2.29417e-06 nr=3 s=5e-08 spm=6 stm=4 w=1.2e-06
XXI12/xC0 XI12/xC0:T1 XI12/xC0:T2 cfmom_2t lr=2.29417e-06 nr=3 s=5e-08 spm=6 stm=4 w=1.2e-06
XXI13/xC0 XI13/xC0:T1 XI13/xC0:T2 cfmom_2t lr=2.29417e-06 nr=3 s=5e-08 spm=6 stm=4 w=1.2e-06
XXI14/xC0 XI14/xC0:T1 XI14/xC0:T2 cfmom_2t lr=2.29417e-06 nr=3 s=5e-08 spm=6 stm=4 w=1.2e-06
XXI34/xC0 XI34/xC0:T1 VSS09A cfmom_2t lr=2.29417e-06 nr=3 s=5e-08 spm=6 stm=4 w=1.2e-06
XXI35/xC0 XI35/xC0:T1 VSS09A cfmom_2t lr=2.29417e-06 nr=3 s=5e-08 spm=6 stm=4 w=1.2e-06
XXI36/xC0 XI36/xC0:T1 VSS09A cfmom_2t lr=2.29417e-06 nr=3 s=5e-08 spm=6 stm=4 w=1.2e-06
XXI37/xC0 XI37/xC0:T1 VSS09A cfmom_2t lr=2.29417e-06 nr=3 s=5e-08 spm=6 stm=4 w=1.2e-06

.ENDS

