*
*|DSPF 1.3
*|DESIGN ARRAY_CMP_T1
*|DATE "Tue Mar 30 17:13:44 2021"
*|VENDOR "Synopsys"
*|PROGRAM "StarRC"
*|VERSION "K-2015.06-SP1"
*|DIVIDER /
*|DELIMITER :
**FORMAT CONLY
*

** COMMENTS

** OPERATING_TEMPERATURE 25
** GLOBAL_TEMPERATURE 25
** TCAD_GRD_FILE /raidj/user/t28/t28u25/etron/ADC_SAR4BIT/runLPE/cln28hpc+_1p09m+ut-alrdl_6x2z_typical.nxtgrd
**   TCAD_TIME_STAMP Thu Jun 25 12:48:01 2015
**   TCADGRD_VERSION 80
** HALF_NODE_SCALE_FACTOR 0.9


.SUBCKT ARRAY_CMP_T1 SL1A SL1B SL2A SL2B SL3A SL3B TOP_ARRAY VDD09A VSS09A

*|GROUND_NET 0

*|NET SL3B 0.00482081PF
Cg1_1 SL3B 0 6.59446e-16

*|NET TOP_ARRAY 0.0167449PF
C3_2 TOP_ARRAY SL3B 3.20327e-15
Cg3_3 TOP_ARRAY 0 5.53265e-15

*|NET SL2B 0.00282153PF
C5_4 SL2B TOP_ARRAY 1.60163e-15
C5_5 SL2B SL3B 2.06855e-16
Cg5_6 SL2B 0 2.4947e-16

*|NET SL1B 0.00133651PF
C6_7 SL1B SL2B 2.53462e-16
C6_8 SL1B TOP_ARRAY 8.00817e-16
Cg6_9 SL1B 0 1.14428e-16

*|NET SL3A 0.00440287PF
C7_10 SL3A TOP_ARRAY 3.20387e-15
C7_11 SL3A SL3B 4.00553e-16
Cg7_12 SL3A 0 7.1043e-16

*|NET SL2A 0.00260932PF
C8_13 SL2A SL3A 8.80172e-17
C8_14 SL2A SL2B 3.36095e-16
C8_15 SL2A TOP_ARRAY 1.60175e-15
C8_16 SL2A SL3B 3.50692e-16
Cg8_17 SL2A 0 1.31447e-16

*|NET SL1A 0.00131969PF
C9_18 SL1A SL2A 1.01324e-16
C9_19 SL1A SL1B 1.67804e-16
C9_20 SL1A SL2B 1.74011e-16
C9_21 SL1A TOP_ARRAY 8.00876e-16
Cg9_22 SL1A 0 7.56753e-17

*
* Instance Section
*
XXI0/xC0 TOP_ARRAY VSS09A cfmom_2t lr=2.29417e-06 nr=3 s=5e-08 spm=6 stm=4 w=1.2e-06
XXI1/xC0 TOP_ARRAY SL3B cfmom_2t lr=2.29417e-06 nr=3 s=5e-08 spm=6 stm=4 w=1.2e-06
XXI2/xC0 TOP_ARRAY SL3A cfmom_2t lr=2.29417e-06 nr=3 s=5e-08 spm=6 stm=4 w=1.2e-06
XXI3/xC0 TOP_ARRAY SL2A cfmom_2t lr=2.29417e-06 nr=3 s=5e-08 spm=6 stm=4 w=1.2e-06
XXI4/xC0 TOP_ARRAY SL3A cfmom_2t lr=2.29417e-06 nr=3 s=5e-08 spm=6 stm=4 w=1.2e-06
XXI5/xC0 TOP_ARRAY SL3B cfmom_2t lr=2.29417e-06 nr=3 s=5e-08 spm=6 stm=4 w=1.2e-06
XXI6/xC0 TOP_ARRAY SL2B cfmom_2t lr=2.29417e-06 nr=3 s=5e-08 spm=6 stm=4 w=1.2e-06
XXI7/xC0 TOP_ARRAY SL1A cfmom_2t lr=2.29417e-06 nr=3 s=5e-08 spm=6 stm=4 w=1.2e-06
XXI8/xC0 TOP_ARRAY SL1B cfmom_2t lr=2.29417e-06 nr=3 s=5e-08 spm=6 stm=4 w=1.2e-06
XXI9/xC0 TOP_ARRAY SL2A cfmom_2t lr=2.29417e-06 nr=3 s=5e-08 spm=6 stm=4 w=1.2e-06
XXI10/xC0 TOP_ARRAY SL3B cfmom_2t lr=2.29417e-06 nr=3 s=5e-08 spm=6 stm=4 w=1.2e-06
XXI11/xC0 TOP_ARRAY SL3A cfmom_2t lr=2.29417e-06 nr=3 s=5e-08 spm=6 stm=4 w=1.2e-06
XXI12/xC0 TOP_ARRAY SL2B cfmom_2t lr=2.29417e-06 nr=3 s=5e-08 spm=6 stm=4 w=1.2e-06
XXI13/xC0 TOP_ARRAY SL3A cfmom_2t lr=2.29417e-06 nr=3 s=5e-08 spm=6 stm=4 w=1.2e-06
XXI14/xC0 TOP_ARRAY SL3B cfmom_2t lr=2.29417e-06 nr=3 s=5e-08 spm=6 stm=4 w=1.2e-06
XXI34/xC0 TOP_ARRAY VSS09A cfmom_2t lr=2.29417e-06 nr=3 s=5e-08 spm=6 stm=4 w=1.2e-06
XXI35/xC0 TOP_ARRAY VSS09A cfmom_2t lr=2.29417e-06 nr=3 s=5e-08 spm=6 stm=4 w=1.2e-06
XXI36/xC0 TOP_ARRAY VSS09A cfmom_2t lr=2.29417e-06 nr=3 s=5e-08 spm=6 stm=4 w=1.2e-06
XXI37/xC0 TOP_ARRAY VSS09A cfmom_2t lr=2.29417e-06 nr=3 s=5e-08 spm=6 stm=4 w=1.2e-06

.ENDS

